# generated using pymatgen
data_LiFeO2
_symmetry_space_group_name_H-M   'P 1'
_cell_length_a   4.11832536
_cell_length_b   4.11833139
_cell_length_c   5.27613291
_cell_angle_alpha   112.97323924
_cell_angle_beta   112.97336324
_cell_angle_gamma   89.99823249
_symmetry_Int_Tables_number   1
_chemical_formula_structural   LiFeO2
_chemical_formula_sum   'Li2 Fe2 O4'
_cell_volume   74.62006288
_cell_formula_units_Z   2
loop_
 _symmetry_equiv_pos_site_id
 _symmetry_equiv_pos_as_xyz
  1  'x, y, z'
loop_
 _atom_site_type_symbol
 _atom_site_label
 _atom_site_symmetry_multiplicity
 _atom_site_fract_x
 _atom_site_fract_y
 _atom_site_fract_z
 _atom_site_occupancy
  Li  Li0  1  0.874992  0.125008  0.749998  1
  Li  Li1  1  0.125008  0.874991  0.249999  1
  O  O2  1  0.143655  0.393642  0.287298  1
  O  O3  1  0.393644  0.143656  0.787297  1
  O  O4  1  0.856346  0.606360  0.712705  1
  O  O5  1  0.606360  0.856345  0.212705  1
  Fe  Fe6  1  0.624997  0.374995  0.250000  1
  Fe  Fe7  1  0.374999  0.625003  0.750001  1
