# generated using pymatgen
data_Ca3FeN3
_symmetry_space_group_name_H-M   'P 1'
_cell_length_a   7.21341402
_cell_length_b   7.21225776
_cell_length_c   4.98037058
_cell_angle_alpha   90.00000000
_cell_angle_beta   90.00000000
_cell_angle_gamma   120.01423452
_symmetry_Int_Tables_number   1
_chemical_formula_structural   Ca3FeN3
_chemical_formula_sum   'Ca6 Fe2 N6'
_cell_volume   224.35826780
_cell_formula_units_Z   2
loop_
 _symmetry_equiv_pos_site_id
 _symmetry_equiv_pos_as_xyz
  1  'x, y, z'
loop_
 _atom_site_type_symbol
 _atom_site_label
 _atom_site_symmetry_multiplicity
 _atom_site_fract_x
 _atom_site_fract_y
 _atom_site_fract_z
 _atom_site_occupancy
  Ca  Ca0  1  0.914447  0.640800  0.250000  1
  Ca  Ca1  1  0.726186  0.085760  0.250000  1
  Ca  Ca2  1  0.359274  0.273489  0.250000  1
  Ca  Ca3  1  0.085553  0.359200  0.750000  1
  Ca  Ca4  1  0.273814  0.914240  0.750000  1
  Ca  Ca5  1  0.640726  0.726511  0.750000  1
  Fe  Fe6  1  0.666595  0.333232  0.750000  1
  Fe  Fe7  1  0.333405  0.666768  0.250000  1
  N  N8  1  0.895009  0.589735  0.750000  1
  N  N9  1  0.694842  0.105057  0.750000  1
  N  N10  1  0.410245  0.305128  0.750000  1
  N  N11  1  0.104991  0.410265  0.250000  1
  N  N12  1  0.305158  0.894943  0.250000  1
  N  N13  1  0.589754  0.694872  0.250000  1
