# generated using pymatgen
data_Sr2FeO4
_symmetry_space_group_name_H-M   'P 1'
_cell_length_a   3.90949021
_cell_length_b   3.90949021
_cell_length_c   6.85942710
_cell_angle_alpha   106.55717875
_cell_angle_beta   106.55717880
_cell_angle_gamma   89.99999995
_symmetry_Int_Tables_number   1
_chemical_formula_structural   Sr2FeO4
_chemical_formula_sum   'Sr2 Fe1 O4'
_cell_volume   95.94928277
_cell_formula_units_Z   1
loop_
 _symmetry_equiv_pos_site_id
 _symmetry_equiv_pos_as_xyz
  1  'x, y, z'
loop_
 _atom_site_type_symbol
 _atom_site_label
 _atom_site_symmetry_multiplicity
 _atom_site_fract_x
 _atom_site_fract_y
 _atom_site_fract_z
 _atom_site_occupancy
  O  O0  1  0.842024  0.842023  0.684048  1
  O  O1  1  0.157976  0.157974  0.315950  1
  O  O2  1  1.000000  0.500000  0.000000  1
  O  O3  1  0.500000  0.000000  0.000001  1
  Fe  Fe4  1  0.000000  0.000000  0.000000  1
  Sr  Sr5  1  0.642828  0.642827  0.285655  1
  Sr  Sr6  1  0.357172  0.357173  0.714344  1
