# generated using pymatgen
data_Ba(CoN)2
_symmetry_space_group_name_H-M   'P 1'
_cell_length_a   6.08548656
_cell_length_b   6.08548656
_cell_length_c   9.15814000
_cell_angle_alpha   90.00000000
_cell_angle_beta   90.00000000
_cell_angle_gamma   90.00000000
_symmetry_Int_Tables_number   1
_chemical_formula_structural   Ba(CoN)2
_chemical_formula_sum   'Ba4 Co8 N8'
_cell_volume   339.15474186
_cell_formula_units_Z   4
loop_
 _symmetry_equiv_pos_site_id
 _symmetry_equiv_pos_as_xyz
  1  'x, y, z'
loop_
 _atom_site_type_symbol
 _atom_site_label
 _atom_site_symmetry_multiplicity
 _atom_site_fract_x
 _atom_site_fract_y
 _atom_site_fract_z
 _atom_site_occupancy
  Ba  Ba0  1  0.500000  0.500000  0.250000  1
  Ba  Ba1  1  -0.000000  0.000000  0.250000  1
  Ba  Ba2  1  0.000000  0.000000  0.750000  1
  Ba  Ba3  1  0.500000  0.500000  0.750000  1
  Co  Co4  1  0.867701  0.367701  -0.000000  1
  Co  Co5  1  0.632299  0.132299  0.500000  1
  Co  Co6  1  0.867701  0.632299  0.500000  1
  Co  Co7  1  0.632299  0.867701  -0.000000  1
  Co  Co8  1  0.367701  0.867701  0.500000  1
  Co  Co9  1  0.132299  0.632299  0.000000  1
  Co  Co10  1  0.367701  0.132299  0.000000  1
  Co  Co11  1  0.132299  0.367701  0.500000  1
  N  N12  1  0.336250  0.836250  -0.000000  1
  N  N13  1  0.163750  0.663750  0.500000  1
  N  N14  1  0.336250  0.163750  0.500000  1
  N  N15  1  0.163750  0.336250  -0.000000  1
  N  N16  1  0.836250  0.336250  0.500000  1
  N  N17  1  0.663750  0.163750  -0.000000  1
  N  N18  1  0.836250  0.663750  -0.000000  1
  N  N19  1  0.663750  0.836250  0.500000  1
