# generated using pymatgen
data_CaMnO2
_symmetry_space_group_name_H-M   'P 1'
_cell_length_a   3.28444014
_cell_length_b   4.75559794
_cell_length_c   6.53403576
_cell_angle_alpha   89.99985476
_cell_angle_beta   90.07527484
_cell_angle_gamma   90.00032425
_symmetry_Int_Tables_number   1
_chemical_formula_structural   CaMnO2
_chemical_formula_sum   'Ca2 Mn2 O4'
_cell_volume   102.05813151
_cell_formula_units_Z   2
loop_
 _symmetry_equiv_pos_site_id
 _symmetry_equiv_pos_as_xyz
  1  'x, y, z'
loop_
 _atom_site_type_symbol
 _atom_site_label
 _atom_site_symmetry_multiplicity
 _atom_site_fract_x
 _atom_site_fract_y
 _atom_site_fract_z
 _atom_site_occupancy
  Ca  Ca0  1  0.562400  0.501300  0.884500  1
  Ca  Ca1  1  0.062463  0.001300  0.615504  1
  Mn  Mn2  1  0.562557  0.506386  0.372644  1
  Mn  Mn3  1  0.062304  0.006382  0.127360  1
  O  O4  1  0.062533  0.492539  0.140757  1
  O  O5  1  0.562546  0.999780  0.883814  1
  O  O6  1  0.062322  0.499781  0.616190  1
  O  O7  1  0.562330  0.992537  0.359246  1
