# generated using pymatgen
data_LiRuN
_symmetry_space_group_name_H-M   'P 1'
_cell_length_a   9.81129437
_cell_length_b   2.94649653
_cell_length_c   4.75495147
_cell_angle_alpha   90.00000000
_cell_angle_beta   90.00000000
_cell_angle_gamma   90.00000000
_symmetry_Int_Tables_number   1
_chemical_formula_structural   LiRuN
_chemical_formula_sum   'Li4 Ru4 N4'
_cell_volume   137.46062965
_cell_formula_units_Z   4
loop_
 _symmetry_equiv_pos_site_id
 _symmetry_equiv_pos_as_xyz
  1  'x, y, z'
loop_
 _atom_site_type_symbol
 _atom_site_label
 _atom_site_symmetry_multiplicity
 _atom_site_fract_x
 _atom_site_fract_y
 _atom_site_fract_z
 _atom_site_occupancy
  Li  Li0  1  0.489324  0.250000  0.228830  1
  Li  Li1  1  0.989324  0.250000  0.271170  1
  Li  Li2  1  0.510676  0.750000  0.771170  1
  Li  Li3  1  0.010676  0.750000  0.728830  1
  Ru  Ru4  1  0.744705  0.250000  0.961778  1
  Ru  Ru5  1  0.244705  0.250000  0.538222  1
  Ru  Ru6  1  0.255295  0.750000  0.038222  1
  Ru  Ru7  1  0.755295  0.750000  0.461778  1
  N  N8  1  0.864718  0.250000  0.638873  1
  N  N9  1  0.364718  0.250000  0.861127  1
  N  N10  1  0.135282  0.750000  0.361127  1
  N  N11  1  0.635282  0.750000  0.138873  1
