# generated using pymatgen
data_TiCoSi
_symmetry_space_group_name_H-M   'P 1'
_cell_length_a   6.02533526
_cell_length_b   6.02533526
_cell_length_c   3.71795766
_cell_angle_alpha   90.00000000
_cell_angle_beta   90.00000000
_cell_angle_gamma   120.00000001
_symmetry_Int_Tables_number   1
_chemical_formula_structural   TiCoSi
_chemical_formula_sum   'Ti3 Co3 Si3'
_cell_volume   116.89542248
_cell_formula_units_Z   3
loop_
 _symmetry_equiv_pos_site_id
 _symmetry_equiv_pos_as_xyz
  1  'x, y, z'
loop_
 _atom_site_type_symbol
 _atom_site_label
 _atom_site_symmetry_multiplicity
 _atom_site_fract_x
 _atom_site_fract_y
 _atom_site_fract_z
 _atom_site_occupancy
  Si  Si0  1  0.666667  0.333333  0.000000  1
  Si  Si1  1  0.333333  0.666667  0.000000  1
  Si  Si2  1  0.000000  0.000000  0.500000  1
  Ti  Ti3  1  0.564954  0.564954  0.500000  1
  Ti  Ti4  1  0.435046  0.000000  0.500000  1
  Ti  Ti5  1  0.000000  0.435046  0.500000  1
  Co  Co6  1  0.757099  0.000000  0.000000  1
  Co  Co7  1  0.242901  0.242901  0.000000  1
  Co  Co8  1  1.000000  0.757099  0.000000  1
