# generated using pymatgen
data_Be2Mo
_symmetry_space_group_name_H-M   'P 1'
_cell_length_a   4.45116657
_cell_length_b   4.45116658
_cell_length_c   7.30905072
_cell_angle_alpha   90.00000000
_cell_angle_beta   90.00000000
_cell_angle_gamma   120.00000003
_symmetry_Int_Tables_number   1
_chemical_formula_structural   Be2Mo
_chemical_formula_sum   'Be8 Mo4'
_cell_volume   125.41205982
_cell_formula_units_Z   4
loop_
 _symmetry_equiv_pos_site_id
 _symmetry_equiv_pos_as_xyz
  1  'x, y, z'
loop_
 _atom_site_type_symbol
 _atom_site_label
 _atom_site_symmetry_multiplicity
 _atom_site_fract_x
 _atom_site_fract_y
 _atom_site_fract_z
 _atom_site_occupancy
  Be  Be0  1  0.000000  0.000000  0.000000  1
  Be  Be1  1  0.000000  0.000000  0.500000  1
  Be  Be2  1  0.830549  0.661098  0.250000  1
  Be  Be3  1  0.169451  0.830549  0.750000  1
  Be  Be4  1  0.661098  0.830549  0.750000  1
  Be  Be5  1  0.338902  0.169451  0.250000  1
  Be  Be6  1  0.830549  0.169451  0.250000  1
  Be  Be7  1  0.169451  0.338902  0.750000  1
  Mo  Mo8  1  0.333333  0.666667  0.063297  1
  Mo  Mo9  1  0.666667  0.333333  0.563297  1
  Mo  Mo10  1  0.666667  0.333333  0.936703  1
  Mo  Mo11  1  0.333333  0.666667  0.436703  1
