# generated using pymatgen
data_KWO3
_symmetry_space_group_name_H-M   'P 1'
_cell_length_a   3.99852401
_cell_length_b   3.99850424
_cell_length_c   3.99911046
_cell_angle_alpha   89.99369894
_cell_angle_beta   90.00854721
_cell_angle_gamma   90.00686040
_symmetry_Int_Tables_number   1
_chemical_formula_structural   KWO3
_chemical_formula_sum   'K1 W1 O3'
_cell_volume   63.93823720
_cell_formula_units_Z   1
loop_
 _symmetry_equiv_pos_site_id
 _symmetry_equiv_pos_as_xyz
  1  'x, y, z'
loop_
 _atom_site_type_symbol
 _atom_site_label
 _atom_site_symmetry_multiplicity
 _atom_site_fract_x
 _atom_site_fract_y
 _atom_site_fract_z
 _atom_site_occupancy
  K  K0  1  0.999351  0.997874  0.988054  1
  W  W1  1  0.500125  0.498030  0.487975  1
  O  O2  1  0.000169  0.497932  0.487983  1
  O  O3  1  0.500371  0.498135  0.987992  1
  O  O4  1  0.499980  0.998026  0.487996  1
