# generated using pymatgen
data_Y2C3
_symmetry_space_group_name_H-M   'P 1'
_cell_length_a   7.15713058
_cell_length_b   7.15713058
_cell_length_c   7.15713058
_cell_angle_alpha   109.47122061
_cell_angle_beta   109.47122062
_cell_angle_gamma   109.47122064
_symmetry_Int_Tables_number   1
_chemical_formula_structural   Y2C3
_chemical_formula_sum   'Y8 C12'
_cell_volume   282.22464269
_cell_formula_units_Z   4
loop_
 _symmetry_equiv_pos_site_id
 _symmetry_equiv_pos_as_xyz
  1  'x, y, z'
loop_
 _atom_site_type_symbol
 _atom_site_label
 _atom_site_symmetry_multiplicity
 _atom_site_fract_x
 _atom_site_fract_y
 _atom_site_fract_z
 _atom_site_occupancy
  C  C0  1  0.750000  0.794091  0.044091  1
  C  C1  1  0.750000  0.955909  0.205909  1
  C  C2  1  0.294091  0.250000  0.544091  1
  C  C3  1  0.544091  0.294091  0.250000  1
  C  C4  1  0.205909  0.750000  0.955909  1
  C  C5  1  0.955909  0.205909  0.750000  1
  C  C6  1  0.250000  0.705909  0.455909  1
  C  C7  1  0.705909  0.455909  0.250000  1
  C  C8  1  0.250000  0.544091  0.294091  1
  C  C9  1  0.455909  0.250000  0.705909  1
  C  C10  1  0.044091  0.750000  0.794091  1
  C  C11  1  0.794091  0.044091  0.750000  1
  Y  Y12  1  0.601323  0.601323  0.601323  1
  Y  Y13  1  0.398677  0.500000  0.000000  1
  Y  Y14  1  0.500000  0.000000  0.398677  1
  Y  Y15  1  0.000000  0.398677  0.500000  1
  Y  Y16  1  0.500000  0.000000  0.898677  1
  Y  Y17  1  0.000000  0.898677  0.500000  1
  Y  Y18  1  0.898677  0.500000  0.000000  1
  Y  Y19  1  0.101323  0.101323  0.101323  1
