# generated using pymatgen
data_NaFePO4
_symmetry_space_group_name_H-M   'P 1'
_cell_length_a   5.11628360
_cell_length_b   6.93414494
_cell_length_c   9.11419222
_cell_angle_alpha   90.00000000
_cell_angle_beta   90.00000000
_cell_angle_gamma   90.00000000
_symmetry_Int_Tables_number   1
_chemical_formula_structural   NaFePO4
_chemical_formula_sum   'Na4 Fe4 P4 O16'
_cell_volume   323.34467166
_cell_formula_units_Z   4
loop_
 _symmetry_equiv_pos_site_id
 _symmetry_equiv_pos_as_xyz
  1  'x, y, z'
loop_
 _atom_site_type_symbol
 _atom_site_label
 _atom_site_symmetry_multiplicity
 _atom_site_fract_x
 _atom_site_fract_y
 _atom_site_fract_z
 _atom_site_occupancy
  O  O0  1  0.249628  0.750000  0.384119  1
  O  O1  1  0.749628  0.250000  0.115881  1
  O  O2  1  0.750372  0.250000  0.615881  1
  O  O3  1  0.250372  0.750000  0.884119  1
  O  O4  1  0.954619  0.750000  0.152257  1
  O  O5  1  0.454619  0.250000  0.347743  1
  O  O6  1  0.045381  0.250000  0.847743  1
  O  O7  1  0.545381  0.750000  0.652257  1
  O  O8  1  0.181540  0.432167  0.621041  1
  O  O9  1  0.681540  0.567833  0.878959  1
  O  O10  1  0.818460  0.932167  0.378959  1
  O  O11  1  0.318460  0.067833  0.121041  1
  O  O12  1  0.681540  0.932167  0.878959  1
  O  O13  1  0.181540  0.067833  0.621041  1
  O  O14  1  0.318460  0.432167  0.121041  1
  O  O15  1  0.818460  0.567833  0.378959  1
  Na  Na16  1  0.468954  0.750000  0.151458  1
  Na  Na17  1  0.968954  0.250000  0.348542  1
  Na  Na18  1  0.531046  0.250000  0.848542  1
  Na  Na19  1  0.031046  0.750000  0.651458  1
  P  P20  1  0.963847  0.750000  0.324677  1
  P  P21  1  0.463847  0.250000  0.175323  1
  P  P22  1  0.036153  0.250000  0.675323  1
  P  P23  1  0.536153  0.750000  0.824677  1
  Fe  Fe24  1  0.500000  0.500000  0.500000  1
  Fe  Fe25  1  0.000000  0.500000  0.000000  1
  Fe  Fe26  1  0.500000  0.000000  0.500000  1
  Fe  Fe27  1  0.000000  0.000000  0.000000  1
