# generated using pymatgen
data_ScGe2
_symmetry_space_group_name_H-M   'P 1'
_cell_length_a   3.82200463
_cell_length_b   3.92046417
_cell_length_c   7.72130734
_cell_angle_alpha   104.70682016
_cell_angle_beta   90.00000000
_cell_angle_gamma   90.00000000
_symmetry_Int_Tables_number   1
_chemical_formula_structural   ScGe2
_chemical_formula_sum   'Sc2 Ge4'
_cell_volume   111.90582185
_cell_formula_units_Z   2
loop_
 _symmetry_equiv_pos_site_id
 _symmetry_equiv_pos_as_xyz
  1  'x, y, z'
loop_
 _atom_site_type_symbol
 _atom_site_label
 _atom_site_symmetry_multiplicity
 _atom_site_fract_x
 _atom_site_fract_y
 _atom_site_fract_z
 _atom_site_occupancy
  Sc  Sc0  1  0.750000  0.101014  0.202028  1
  Sc  Sc1  1  0.250000  0.898986  0.797972  1
  Ge  Ge2  1  0.750000  0.441306  0.882612  1
  Ge  Ge3  1  0.250000  0.558694  0.117388  1
  Ge  Ge4  1  0.750000  0.748483  0.496966  1
  Ge  Ge5  1  0.250000  0.251517  0.503034  1
