# generated using pymatgen
data_Sr8Fe8O23
_symmetry_space_group_name_H-M   'P 1'
_cell_length_a   7.83963499
_cell_length_b   8.76712462
_cell_length_c   8.76712461
_cell_angle_alpha   78.46876640
_cell_angle_beta   63.44196170
_cell_angle_gamma   63.44196172
_symmetry_Int_Tables_number   1
_chemical_formula_structural   Sr8Fe8O23
_chemical_formula_sum   'Sr8 Fe8 O23'
_cell_volume   482.11798992
_cell_formula_units_Z   1
loop_
 _symmetry_equiv_pos_site_id
 _symmetry_equiv_pos_as_xyz
  1  'x, y, z'
loop_
 _atom_site_type_symbol
 _atom_site_label
 _atom_site_symmetry_multiplicity
 _atom_site_fract_x
 _atom_site_fract_y
 _atom_site_fract_z
 _atom_site_occupancy
  O  O0  1  0.999999  0.500000  0.500000  1
  O  O1  1  0.500001  0.500000  0.500000  1
  O  O2  1  0.875256  0.500000  0.249488  1
  O  O3  1  0.124743  0.750512  0.500000  1
  O  O4  1  0.375255  0.249488  0.500000  1
  O  O5  1  0.624744  0.500000  0.750511  1
  O  O6  1  0.124744  0.500000  0.750512  1
  O  O7  1  0.875257  0.249488  0.499999  1
  O  O8  1  0.624745  0.750512  0.499999  1
  O  O9  1  0.375256  0.500000  0.249488  1
  O  O10  1  0.263305  0.000000  0.473392  1
  O  O11  1  0.736696  0.526608  1.000000  1
  O  O12  1  0.263304  0.473392  1.000000  1
  O  O13  1  0.736695  0.000000  0.526608  1
  O  O14  1  0.901221  0.759484  0.999999  1
  O  O15  1  0.660703  0.240516  1.000000  1
  O  O16  1  0.500000  0.000000  1.000000  1
  O  O17  1  0.339297  0.000000  0.759484  1
  O  O18  1  0.098781  0.240516  1.000000  1
  O  O19  1  0.901219  0.000000  0.759485  1
  O  O20  1  0.098781  0.000000  0.240515  1
  O  O21  1  0.660703  0.000000  0.240517  1
  O  O22  1  0.339297  0.759484  1.000000  1
  Fe  Fe23  1  0.249999  0.500000  0.500000  1
  Fe  Fe24  1  0.750001  0.500000  0.499999  1
  Fe  Fe25  1  0.999999  0.000000  0.500000  1
  Fe  Fe26  1  0.500000  0.500000  1.000000  1
  Fe  Fe27  1  1.000000  0.500000  1.000000  1
  Fe  Fe28  1  0.499999  0.000000  0.500000  1
  Fe  Fe29  1  0.744275  0.000000  1.000000  1
  Fe  Fe30  1  0.255724  0.000000  1.000000  1
  Sr  Sr31  1  0.247557  0.252443  0.252442  1
  Sr  Sr32  1  0.500000  0.747557  0.252443  1
  Sr  Sr33  1  0.500000  0.252443  0.747558  1
  Sr  Sr34  1  0.752443  0.747557  0.747558  1
  Sr  Sr35  1  0.740609  0.259390  0.259391  1
  Sr  Sr36  1  1.000000  0.740610  0.259390  1
  Sr  Sr37  1  0.000001  0.259390  0.740610  1
  Sr  Sr38  1  0.259391  0.740610  0.740610  1
