# generated using pymatgen
data_Li5OsN4
_symmetry_space_group_name_H-M   'P 1'
_cell_length_a   4.97110747
_cell_length_b   6.63085958
_cell_length_c   6.72526401
_cell_angle_alpha   90.00000000
_cell_angle_beta   90.00000000
_cell_angle_gamma   90.00000000
_symmetry_Int_Tables_number   1
_chemical_formula_structural   Li5OsN4
_chemical_formula_sum   'Li10 Os2 N8'
_cell_volume   221.68296483
_cell_formula_units_Z   2
loop_
 _symmetry_equiv_pos_site_id
 _symmetry_equiv_pos_as_xyz
  1  'x, y, z'
loop_
 _atom_site_type_symbol
 _atom_site_label
 _atom_site_symmetry_multiplicity
 _atom_site_fract_x
 _atom_site_fract_y
 _atom_site_fract_z
 _atom_site_occupancy
  Li  Li0  1  0.756285  0.260428  0.199675  1
  Li  Li1  1  0.756285  0.260428  0.800325  1
  Li  Li2  1  0.756285  0.739572  0.199675  1
  Li  Li3  1  0.756285  0.739572  0.800325  1
  Li  Li4  1  0.243715  0.239572  0.300325  1
  Li  Li5  1  0.243715  0.239572  0.699675  1
  Li  Li6  1  0.243715  0.760428  0.300325  1
  Li  Li7  1  0.243715  0.760428  0.699675  1
  Li  Li8  1  0.310609  0.000000  0.000000  1
  Li  Li9  1  0.689391  0.500000  0.500000  1
  Os  Os10  1  0.278429  0.500000  0.000000  1
  Os  Os11  1  0.721571  0.000000  0.500000  1
  N  N12  1  0.072925  0.731628  0.000000  1
  N  N13  1  0.072925  0.268372  0.000000  1
  N  N14  1  0.927075  0.768372  0.500000  1
  N  N15  1  0.927075  0.231628  0.500000  1
  N  N16  1  0.517534  0.000000  0.270207  1
  N  N17  1  0.517534  0.000000  0.729793  1
  N  N18  1  0.482466  0.500000  0.229793  1
  N  N19  1  0.482466  0.500000  0.770207  1
