# generated using pymatgen
data_CrSi2
_symmetry_space_group_name_H-M   'P 1'
_cell_length_a   4.40761985
_cell_length_b   4.40761985
_cell_length_c   6.36642494
_cell_angle_alpha   90.00000000
_cell_angle_beta   90.00000000
_cell_angle_gamma   120.00000006
_symmetry_Int_Tables_number   1
_chemical_formula_structural   CrSi2
_chemical_formula_sum   'Cr3 Si6'
_cell_volume   107.11110886
_cell_formula_units_Z   3
loop_
 _symmetry_equiv_pos_site_id
 _symmetry_equiv_pos_as_xyz
  1  'x, y, z'
loop_
 _atom_site_type_symbol
 _atom_site_label
 _atom_site_symmetry_multiplicity
 _atom_site_fract_x
 _atom_site_fract_y
 _atom_site_fract_z
 _atom_site_occupancy
  Si  Si0  1  0.166163  0.833837  0.833333  1
  Si  Si1  1  0.332325  0.166163  0.166667  1
  Si  Si2  1  0.833837  0.667675  0.500000  1
  Si  Si3  1  0.833837  0.166163  0.833333  1
  Si  Si4  1  0.667675  0.833837  0.166667  1
  Si  Si5  1  0.166163  0.332325  0.500000  1
  Cr  Cr6  1  0.500000  0.000000  0.500000  1
  Cr  Cr7  1  0.000000  0.500000  0.166667  1
  Cr  Cr8  1  0.500000  0.500000  0.833333  1
