# generated using pymatgen
data_Nb4SiNi
_symmetry_space_group_name_H-M   'P 1'
_cell_length_a   4.97417319
_cell_length_b   6.25992087
_cell_length_c   6.25992087
_cell_angle_alpha   90.00000000
_cell_angle_beta   90.00000000
_cell_angle_gamma   90.00000000
_symmetry_Int_Tables_number   1
_chemical_formula_structural   Nb4SiNi
_chemical_formula_sum   'Nb8 Si2 Ni2'
_cell_volume   194.92098138
_cell_formula_units_Z   2
loop_
 _symmetry_equiv_pos_site_id
 _symmetry_equiv_pos_as_xyz
  1  'x, y, z'
loop_
 _atom_site_type_symbol
 _atom_site_label
 _atom_site_symmetry_multiplicity
 _atom_site_fract_x
 _atom_site_fract_y
 _atom_site_fract_z
 _atom_site_occupancy
  Si  Si0  1  0.750000  0.500000  0.500000  1
  Si  Si1  1  0.250000  0.500000  0.500000  1
  Ni  Ni2  1  0.750000  0.000000  0.000000  1
  Ni  Ni3  1  0.250000  0.000000  0.000000  1
  Nb  Nb4  1  0.500000  0.155331  0.336919  1
  Nb  Nb5  1  0.500000  0.844669  0.663081  1
  Nb  Nb6  1  0.500000  0.663081  0.155331  1
  Nb  Nb7  1  0.500000  0.336919  0.844669  1
  Nb  Nb8  1  0.000000  0.844669  0.336919  1
  Nb  Nb9  1  0.000000  0.663081  0.844669  1
  Nb  Nb10  1  0.000000  0.336919  0.155331  1
  Nb  Nb11  1  0.000000  0.155331  0.663081  1
