# generated using pymatgen
data_CoSn2
_symmetry_space_group_name_H-M   'P 1'
_cell_length_a   5.28972967
_cell_length_b   5.28972967
_cell_length_c   5.28972967
_cell_angle_alpha   105.55934281
_cell_angle_beta   105.55934277
_cell_angle_gamma   117.61496061
_symmetry_Int_Tables_number   1
_chemical_formula_structural   CoSn2
_chemical_formula_sum   'Co2 Sn4'
_cell_volume   112.19152874
_cell_formula_units_Z   2
loop_
 _symmetry_equiv_pos_site_id
 _symmetry_equiv_pos_as_xyz
  1  'x, y, z'
loop_
 _atom_site_type_symbol
 _atom_site_label
 _atom_site_symmetry_multiplicity
 _atom_site_fract_x
 _atom_site_fract_y
 _atom_site_fract_z
 _atom_site_occupancy
  Co  Co0  1  0.750000  0.750000  0.000000  1
  Co  Co1  1  0.250000  0.250000  0.000000  1
  Sn  Sn2  1  0.334383  0.165617  0.500000  1
  Sn  Sn3  1  0.834383  0.334383  0.168765  1
  Sn  Sn4  1  0.665617  0.834383  0.500000  1
  Sn  Sn5  1  0.165617  0.665617  0.831235  1
