# generated using pymatgen
data_Sn(PbO2)2
_symmetry_space_group_name_H-M   'P 1'
_cell_length_a   6.49128213
_cell_length_b   8.85797831
_cell_length_c   8.94324187
_cell_angle_alpha   90.00000000
_cell_angle_beta   90.00000000
_cell_angle_gamma   90.00000000
_symmetry_Int_Tables_number   1
_chemical_formula_structural   Sn(PbO2)2
_chemical_formula_sum   'Sn4 Pb8 O16'
_cell_volume   514.23315497
_cell_formula_units_Z   4
loop_
 _symmetry_equiv_pos_site_id
 _symmetry_equiv_pos_as_xyz
  1  'x, y, z'
loop_
 _atom_site_type_symbol
 _atom_site_label
 _atom_site_symmetry_multiplicity
 _atom_site_fract_x
 _atom_site_fract_y
 _atom_site_fract_z
 _atom_site_occupancy
  Sn  Sn0  1  0.249875  0.000000  0.500000  1
  Sn  Sn1  1  0.249875  0.500000  0.000000  1
  Sn  Sn2  1  0.750125  0.000000  0.500000  1
  Sn  Sn3  1  0.750125  0.500000  0.000000  1
  Pb  Pb4  1  0.500000  0.142656  0.834297  1
  Pb  Pb5  1  0.000000  0.340316  0.642013  1
  Pb  Pb6  1  0.000000  0.840316  0.857987  1
  Pb  Pb7  1  0.000000  0.159684  0.142013  1
  Pb  Pb8  1  0.500000  0.357344  0.334297  1
  Pb  Pb9  1  0.500000  0.642656  0.665703  1
  Pb  Pb10  1  0.500000  0.857344  0.165703  1
  Pb  Pb11  1  0.000000  0.659684  0.357987  1
  O  O12  1  0.500000  0.906556  0.625335  1
  O  O13  1  0.251617  0.169086  0.661970  1
  O  O14  1  0.500000  0.406556  0.874665  1
  O  O15  1  0.251617  0.330914  0.161970  1
  O  O16  1  0.000000  0.877401  0.597396  1
  O  O17  1  0.500000  0.593444  0.125335  1
  O  O18  1  0.000000  0.622599  0.097396  1
  O  O19  1  0.748383  0.830914  0.338030  1
  O  O20  1  0.748383  0.669086  0.838030  1
  O  O21  1  0.251617  0.669086  0.838030  1
  O  O22  1  0.251617  0.830914  0.338030  1
  O  O23  1  0.748383  0.169086  0.661970  1
  O  O24  1  0.000000  0.122599  0.402604  1
  O  O25  1  0.500000  0.093444  0.374665  1
  O  O26  1  0.748383  0.330914  0.161970  1
  O  O27  1  0.000000  0.377401  0.902604  1
