# generated using pymatgen
data_CsClO4
_symmetry_space_group_name_H-M   'P 1'
_cell_length_a   6.08693027
_cell_length_b   8.01886105
_cell_length_c   10.12440834
_cell_angle_alpha   90.00000000
_cell_angle_beta   90.00000000
_cell_angle_gamma   90.00000000
_symmetry_Int_Tables_number   1
_chemical_formula_structural   CsClO4
_chemical_formula_sum   'Cs4 Cl4 O16'
_cell_volume   494.17488250
_cell_formula_units_Z   4
loop_
 _symmetry_equiv_pos_site_id
 _symmetry_equiv_pos_as_xyz
  1  'x, y, z'
loop_
 _atom_site_type_symbol
 _atom_site_label
 _atom_site_symmetry_multiplicity
 _atom_site_fract_x
 _atom_site_fract_y
 _atom_site_fract_z
 _atom_site_occupancy
  O  O0  1  0.553632  0.301930  0.431633  1
  O  O1  1  0.053632  0.698070  0.568367  1
  O  O2  1  0.446368  0.801930  0.068367  1
  O  O3  1  0.946368  0.198070  0.931633  1
  O  O4  1  0.446368  0.698070  0.568367  1
  O  O5  1  0.946368  0.301930  0.431633  1
  O  O6  1  0.553632  0.198070  0.931633  1
  O  O7  1  0.053632  0.801930  0.068367  1
  O  O8  1  0.250000  0.546942  0.101705  1
  O  O9  1  0.750000  0.453058  0.898295  1
  O  O10  1  0.750000  0.046942  0.398295  1
  O  O11  1  0.250000  0.953058  0.601705  1
  O  O12  1  0.250000  0.678864  0.888993  1
  O  O13  1  0.750000  0.321136  0.111007  1
  O  O14  1  0.750000  0.178864  0.611007  1
  O  O15  1  0.250000  0.821136  0.388993  1
  Cl  Cl16  1  0.250000  0.794261  0.531926  1
  Cl  Cl17  1  0.750000  0.205739  0.468074  1
  Cl  Cl18  1  0.750000  0.294261  0.968074  1
  Cl  Cl19  1  0.250000  0.705739  0.031926  1
  Cs  Cs20  1  0.250000  0.347911  0.698851  1
  Cs  Cs21  1  0.750000  0.652089  0.301149  1
  Cs  Cs22  1  0.750000  0.847911  0.801149  1
  Cs  Cs23  1  0.250000  0.152089  0.198851  1
