# generated using pymatgen
data_Y3Al5O12
_symmetry_space_group_name_H-M   'P 1'
_cell_length_a   10.50330222
_cell_length_b   10.50330222
_cell_length_c   10.50330222
_cell_angle_alpha   109.47122064
_cell_angle_beta   109.47122063
_cell_angle_gamma   109.47122064
_symmetry_Int_Tables_number   1
_chemical_formula_structural   Y3Al5O12
_chemical_formula_sum   'Y12 Al20 O48'
_cell_volume   891.98118796
_cell_formula_units_Z   4
loop_
 _symmetry_equiv_pos_site_id
 _symmetry_equiv_pos_as_xyz
  1  'x, y, z'
loop_
 _atom_site_type_symbol
 _atom_site_label
 _atom_site_symmetry_multiplicity
 _atom_site_fract_x
 _atom_site_fract_y
 _atom_site_fract_z
 _atom_site_occupancy
  O  O0  1  0.699143  0.679482  0.080629  1
  O  O1  1  0.820518  0.519661  0.401147  1
  O  O2  1  0.419371  0.098853  0.618514  1
  O  O3  1  0.800857  0.881486  0.980339  1
  O  O4  1  0.800857  0.419371  0.820518  1
  O  O5  1  0.881486  0.980339  0.800857  1
  O  O6  1  0.098853  0.980339  0.679482  1
  O  O7  1  0.980339  0.800857  0.881486  1
  O  O8  1  0.401147  0.080629  0.881486  1
  O  O9  1  0.519661  0.618514  0.699143  1
  O  O10  1  0.618514  0.699143  0.519661  1
  O  O11  1  0.820518  0.800857  0.419371  1
  O  O12  1  0.980339  0.679482  0.098853  1
  O  O13  1  0.881486  0.401147  0.080629  1
  O  O14  1  0.419371  0.820518  0.800857  1
  O  O15  1  0.679482  0.098853  0.980339  1
  O  O16  1  0.080629  0.881486  0.401147  1
  O  O17  1  0.401147  0.820518  0.519661  1
  O  O18  1  0.098853  0.618514  0.419371  1
  O  O19  1  0.598853  0.919371  0.118514  1
  O  O20  1  0.618514  0.419371  0.098853  1
  O  O21  1  0.080629  0.699143  0.679482  1
  O  O22  1  0.519661  0.401147  0.820518  1
  O  O23  1  0.699143  0.519661  0.618514  1
  O  O24  1  0.300857  0.320518  0.919371  1
  O  O25  1  0.179482  0.480339  0.598853  1
  O  O26  1  0.580629  0.901147  0.381486  1
  O  O27  1  0.199143  0.118514  0.019661  1
  O  O28  1  0.199143  0.580629  0.179482  1
  O  O29  1  0.118514  0.019661  0.199143  1
  O  O30  1  0.901147  0.019661  0.320518  1
  O  O31  1  0.019661  0.199143  0.118514  1
  O  O32  1  0.300857  0.480339  0.381486  1
  O  O33  1  0.480339  0.598853  0.179482  1
  O  O34  1  0.919371  0.300857  0.320518  1
  O  O35  1  0.320518  0.919371  0.300857  1
  O  O36  1  0.381486  0.580629  0.901147  1
  O  O37  1  0.901147  0.381486  0.580629  1
  O  O38  1  0.598853  0.179482  0.480339  1
  O  O39  1  0.919371  0.118514  0.598853  1
  O  O40  1  0.320518  0.901147  0.019661  1
  O  O41  1  0.580629  0.179482  0.199143  1
  O  O42  1  0.118514  0.598853  0.919371  1
  O  O43  1  0.019661  0.320518  0.901147  1
  O  O44  1  0.179482  0.199143  0.580629  1
  O  O45  1  0.381486  0.300857  0.480339  1
  O  O46  1  0.480339  0.381486  0.300857  1
  O  O47  1  0.679482  0.080629  0.699143  1
  Al  Al48  1  0.250000  0.125000  0.875000  1
  Al  Al49  1  0.750000  0.875000  0.125000  1
  Al  Al50  1  0.375000  0.250000  0.625000  1
  Al  Al51  1  0.625000  0.375000  0.250000  1
  Al  Al52  1  0.125000  0.750000  0.875000  1
  Al  Al53  1  0.875000  0.125000  0.750000  1
  Al  Al54  1  0.750000  0.375000  0.625000  1
  Al  Al55  1  0.375000  0.625000  0.750000  1
  Al  Al56  1  0.125000  0.875000  0.250000  1
  Al  Al57  1  0.875000  0.250000  0.125000  1
  Al  Al58  1  0.625000  0.750000  0.375000  1
  Al  Al59  1  0.250000  0.625000  0.375000  1
  Al  Al60  1  0.500000  0.500000  0.500000  1
  Al  Al61  1  0.500000  0.500000  0.000000  1
  Al  Al62  1  0.500000  0.000000  0.500000  1
  Al  Al63  1  0.000000  0.500000  0.500000  1
  Al  Al64  1  0.500000  0.000000  0.000000  1
  Al  Al65  1  0.000000  0.000000  0.500000  1
  Al  Al66  1  0.000000  0.500000  0.000000  1
  Al  Al67  1  0.000000  0.000000  0.000000  1
  Y  Y68  1  0.250000  0.875000  0.625000  1
  Y  Y69  1  0.875000  0.625000  0.250000  1
  Y  Y70  1  0.625000  0.875000  0.750000  1
  Y  Y71  1  0.875000  0.750000  0.625000  1
  Y  Y72  1  0.625000  0.250000  0.875000  1
  Y  Y73  1  0.750000  0.625000  0.875000  1
  Y  Y74  1  0.750000  0.125000  0.375000  1
  Y  Y75  1  0.125000  0.375000  0.750000  1
  Y  Y76  1  0.375000  0.125000  0.250000  1
  Y  Y77  1  0.125000  0.250000  0.375000  1
  Y  Y78  1  0.375000  0.750000  0.125000  1
  Y  Y79  1  0.250000  0.375000  0.125000  1
