# generated using pymatgen
data_Sc2FeSi2
_symmetry_space_group_name_H-M   'P 1'
_cell_length_a   3.98520463
_cell_length_b   5.33093062
_cell_length_c   8.51717049
_cell_angle_alpha   82.20491835
_cell_angle_beta   76.47019188
_cell_angle_gamma   68.05098870
_symmetry_Int_Tables_number   1
_chemical_formula_structural   Sc2FeSi2
_chemical_formula_sum   'Sc4 Fe2 Si4'
_cell_volume   162.93979887
_cell_formula_units_Z   2
loop_
 _symmetry_equiv_pos_site_id
 _symmetry_equiv_pos_as_xyz
  1  'x, y, z'
loop_
 _atom_site_type_symbol
 _atom_site_label
 _atom_site_symmetry_multiplicity
 _atom_site_fract_x
 _atom_site_fract_y
 _atom_site_fract_z
 _atom_site_occupancy
  Si  Si0  1  0.493140  0.139767  0.873953  1
  Si  Si1  1  0.353510  0.727830  0.565149  1
  Si  Si2  1  0.506860  0.860233  0.126047  1
  Si  Si3  1  0.646490  0.272170  0.434851  1
  Sc  Sc4  1  0.814906  0.262206  0.107981  1
  Sc  Sc5  1  0.000744  0.670677  0.327836  1
  Sc  Sc6  1  0.185094  0.737794  0.892019  1
  Sc  Sc7  1  0.999256  0.329323  0.672164  1
  Fe  Fe8  1  0.729327  0.914702  0.626643  1
  Fe  Fe9  1  0.270673  0.085298  0.373357  1
