# generated using pymatgen
data_NaSi2Pd3
_symmetry_space_group_name_H-M   'P 1'
_cell_length_a   5.75930806
_cell_length_b   6.73819987
_cell_length_c   6.73819986
_cell_angle_alpha   63.55502960
_cell_angle_beta   64.69970541
_cell_angle_gamma   64.69970534
_symmetry_Int_Tables_number   1
_chemical_formula_structural   NaSi2Pd3
_chemical_formula_sum   'Na2 Si4 Pd6'
_cell_volume   202.39339462
_cell_formula_units_Z   2
loop_
 _symmetry_equiv_pos_site_id
 _symmetry_equiv_pos_as_xyz
  1  'x, y, z'
loop_
 _atom_site_type_symbol
 _atom_site_label
 _atom_site_symmetry_multiplicity
 _atom_site_fract_x
 _atom_site_fract_y
 _atom_site_fract_z
 _atom_site_occupancy
  Na  Na0  1  0.955661  0.000000  0.000000  1
  Na  Na1  1  0.019256  0.500000  0.500000  1
  Si  Si2  1  0.383305  0.688667  0.688667  1
  Si  Si3  1  0.282072  0.156937  0.156937  1
  Si  Si4  1  0.760638  0.311333  0.311333  1
  Si  Si5  1  0.595946  0.843063  0.843063  1
  Pd  Pd6  1  0.495580  0.049395  0.451943  1
  Pd  Pd7  1  0.495580  0.451943  0.049395  1
  Pd  Pd8  1  0.996918  0.950605  0.548057  1
  Pd  Pd9  1  0.501563  0.281297  0.718703  1
  Pd  Pd10  1  0.501563  0.718703  0.281297  1
  Pd  Pd11  1  0.996918  0.548057  0.950605  1
