# generated using pymatgen
data_KCrS2
_symmetry_space_group_name_H-M   'P 1'
_cell_length_a   7.38768250
_cell_length_b   7.38768250
_cell_length_c   7.38768249
_cell_angle_alpha   28.79721776
_cell_angle_beta   28.79721780
_cell_angle_gamma   28.79721777
_symmetry_Int_Tables_number   1
_chemical_formula_structural   KCrS2
_chemical_formula_sum   'K1 Cr1 S2'
_cell_volume   82.73038981
_cell_formula_units_Z   1
loop_
 _symmetry_equiv_pos_site_id
 _symmetry_equiv_pos_as_xyz
  1  'x, y, z'
loop_
 _atom_site_type_symbol
 _atom_site_label
 _atom_site_symmetry_multiplicity
 _atom_site_fract_x
 _atom_site_fract_y
 _atom_site_fract_z
 _atom_site_occupancy
  S  S0  1  0.725157  0.725157  0.725157  1
  S  S1  1  0.274843  0.274843  0.274843  1
  K  K2  1  0.500000  0.500000  0.500000  1
  Cr  Cr3  1  0.000000  0.000000  0.000000  1
