# generated using pymatgen
data_NaN3
_symmetry_space_group_name_H-M   'P 1'
_cell_length_a   3.68600280
_cell_length_b   3.66280319
_cell_length_c   5.38379203
_cell_angle_alpha   105.65602386
_cell_angle_beta   90.00000000
_cell_angle_gamma   120.20974382
_symmetry_Int_Tables_number   1
_chemical_formula_structural   NaN3
_chemical_formula_sum   'Na1 N3'
_cell_volume   59.67422277
_cell_formula_units_Z   1
loop_
 _symmetry_equiv_pos_site_id
 _symmetry_equiv_pos_as_xyz
  1  'x, y, z'
loop_
 _atom_site_type_symbol
 _atom_site_label
 _atom_site_symmetry_multiplicity
 _atom_site_fract_x
 _atom_site_fract_y
 _atom_site_fract_z
 _atom_site_occupancy
  Na  Na0  1  0.000000  0.000000  0.000000  1
  N  N1  1  0.600035  0.200070  0.726509  1
  N  N2  1  0.500000  0.000000  0.500000  1
  N  N3  1  0.399965  0.799930  0.273491  1
