# generated using pymatgen
data_Si3Ru4
_symmetry_space_group_name_H-M   'P 1'
_cell_length_a   4.03416726
_cell_length_b   5.23473355
_cell_length_c   17.33926692
_cell_angle_alpha   90.00000000
_cell_angle_beta   90.00000000
_cell_angle_gamma   90.00000000
_symmetry_Int_Tables_number   1
_chemical_formula_structural   Si3Ru4
_chemical_formula_sum   'Si12 Ru16'
_cell_volume   366.16700975
_cell_formula_units_Z   4
loop_
 _symmetry_equiv_pos_site_id
 _symmetry_equiv_pos_as_xyz
  1  'x, y, z'
loop_
 _atom_site_type_symbol
 _atom_site_label
 _atom_site_symmetry_multiplicity
 _atom_site_fract_x
 _atom_site_fract_y
 _atom_site_fract_z
 _atom_site_occupancy
  Ru  Ru0  1  0.750000  0.654628  0.764344  1
  Ru  Ru1  1  0.250000  0.345372  0.235656  1
  Ru  Ru2  1  0.750000  0.154628  0.735656  1
  Ru  Ru3  1  0.250000  0.845372  0.264344  1
  Ru  Ru4  1  0.750000  0.989583  0.892996  1
  Ru  Ru5  1  0.250000  0.010417  0.107004  1
  Ru  Ru6  1  0.750000  0.489583  0.607004  1
  Ru  Ru7  1  0.250000  0.510417  0.392996  1
  Ru  Ru8  1  0.750000  0.826095  0.471161  1
  Ru  Ru9  1  0.250000  0.173905  0.528839  1
  Ru  Ru10  1  0.750000  0.326095  0.028839  1
  Ru  Ru11  1  0.250000  0.673905  0.971161  1
  Ru  Ru12  1  0.750000  0.658482  0.163527  1
  Ru  Ru13  1  0.250000  0.341518  0.836473  1
  Ru  Ru14  1  0.750000  0.158482  0.336473  1
  Ru  Ru15  1  0.250000  0.841518  0.663527  1
  Si  Si16  1  0.750000  0.996961  0.603554  1
  Si  Si17  1  0.250000  0.003039  0.396446  1
  Si  Si18  1  0.750000  0.496961  0.896446  1
  Si  Si19  1  0.250000  0.503039  0.103554  1
  Si  Si20  1  0.750000  0.850215  0.033983  1
  Si  Si21  1  0.250000  0.149785  0.966017  1
  Si  Si22  1  0.750000  0.350215  0.466017  1
  Si  Si23  1  0.250000  0.649785  0.533983  1
  Si  Si24  1  0.750000  0.620726  0.309019  1
  Si  Si25  1  0.250000  0.379274  0.690981  1
  Si  Si26  1  0.750000  0.120726  0.190981  1
  Si  Si27  1  0.250000  0.879274  0.809019  1
