# generated using pymatgen
data_Ba(Si3N4)2
_symmetry_space_group_name_H-M   'P 1'
_cell_length_a   4.87265932
_cell_length_b   6.64353616
_cell_length_c   6.64353574
_cell_angle_alpha   73.96838662
_cell_angle_beta   68.48641394
_cell_angle_gamma   68.48641236
_symmetry_Int_Tables_number   1
_chemical_formula_structural   Ba(Si3N4)2
_chemical_formula_sum   'Ba1 Si6 N8'
_cell_volume   183.62888842
_cell_formula_units_Z   1
loop_
 _symmetry_equiv_pos_site_id
 _symmetry_equiv_pos_as_xyz
  1  'x, y, z'
loop_
 _atom_site_type_symbol
 _atom_site_label
 _atom_site_symmetry_multiplicity
 _atom_site_fract_x
 _atom_site_fract_y
 _atom_site_fract_z
 _atom_site_occupancy
  Ba  Ba0  1  0.166258  1.000000  1.000000  1
  Si  Si1  1  0.812372  0.540560  0.138356  1
  Si  Si2  1  0.491288  0.459440  0.861644  1
  Si  Si3  1  0.491288  0.861644  0.459440  1
  Si  Si4  1  0.812372  0.138356  0.540560  1
  Si  Si5  1  0.019149  0.628268  0.628268  1
  Si  Si6  1  0.275685  0.371732  0.371732  1
  N  N7  1  0.983781  0.318129  0.318129  1
  N  N8  1  0.502237  0.118538  0.477767  1
  N  N9  1  0.098542  0.881462  0.522233  1
  N  N10  1  0.707455  0.785733  0.214267  1
  N  N11  1  0.502237  0.477767  0.118538  1
  N  N12  1  0.098542  0.522233  0.881462  1
  N  N13  1  0.707455  0.214267  0.785733  1
  N  N14  1  0.620038  0.681871  0.681871  1
