# generated using pymatgen
data_Zn(SbO2)2
_symmetry_space_group_name_H-M   'P 1'
_cell_length_a   6.10793509
_cell_length_b   8.60358649
_cell_length_c   8.60358649
_cell_angle_alpha   90.00000000
_cell_angle_beta   90.00000000
_cell_angle_gamma   90.00000000
_symmetry_Int_Tables_number   1
_chemical_formula_structural   Zn(SbO2)2
_chemical_formula_sum   'Zn4 Sb8 O16'
_cell_volume   452.11974185
_cell_formula_units_Z   4
loop_
 _symmetry_equiv_pos_site_id
 _symmetry_equiv_pos_as_xyz
  1  'x, y, z'
loop_
 _atom_site_type_symbol
 _atom_site_label
 _atom_site_symmetry_multiplicity
 _atom_site_fract_x
 _atom_site_fract_y
 _atom_site_fract_z
 _atom_site_occupancy
  Zn  Zn0  1  0.250000  0.500000  0.000000  1
  Zn  Zn1  1  0.250000  0.000000  0.500000  1
  Zn  Zn2  1  0.750000  0.000000  0.500000  1
  Zn  Zn3  1  0.750000  0.500000  0.000000  1
  Sb  Sb4  1  0.500000  0.665388  0.678758  1
  Sb  Sb5  1  0.500000  0.165388  0.821242  1
  Sb  Sb6  1  0.000000  0.321242  0.665388  1
  Sb  Sb7  1  0.000000  0.678758  0.334612  1
  Sb  Sb8  1  0.500000  0.334612  0.321242  1
  Sb  Sb9  1  0.000000  0.178758  0.165388  1
  Sb  Sb10  1  0.000000  0.821242  0.834612  1
  Sb  Sb11  1  0.500000  0.834612  0.178758  1
  O  O12  1  0.000000  0.906541  0.359952  1
  O  O13  1  0.500000  0.859952  0.406541  1
  O  O14  1  0.750000  0.819348  0.680652  1
  O  O15  1  0.000000  0.093459  0.640048  1
  O  O16  1  0.250000  0.680652  0.180652  1
  O  O17  1  0.000000  0.593459  0.859952  1
  O  O18  1  0.750000  0.319348  0.819348  1
  O  O19  1  0.000000  0.406541  0.140048  1
  O  O20  1  0.250000  0.180652  0.319348  1
  O  O21  1  0.500000  0.140048  0.593459  1
  O  O22  1  0.750000  0.680652  0.180652  1
  O  O23  1  0.250000  0.319348  0.819348  1
  O  O24  1  0.750000  0.180652  0.319348  1
  O  O25  1  0.500000  0.359952  0.093459  1
  O  O26  1  0.500000  0.640048  0.906541  1
  O  O27  1  0.250000  0.819348  0.680652  1
