# generated using pymatgen
data_TlPd3
_symmetry_space_group_name_H-M   'P 1'
_cell_length_a   4.22878536
_cell_length_b   4.22878567
_cell_length_c   4.85699337
_cell_angle_alpha   115.82482076
_cell_angle_beta   115.82483299
_cell_angle_gamma   89.97827426
_symmetry_Int_Tables_number   1
_chemical_formula_structural   TlPd3
_chemical_formula_sum   'Tl1 Pd3'
_cell_volume   68.42407943
_cell_formula_units_Z   1
loop_
 _symmetry_equiv_pos_site_id
 _symmetry_equiv_pos_as_xyz
  1  'x, y, z'
loop_
 _atom_site_type_symbol
 _atom_site_label
 _atom_site_symmetry_multiplicity
 _atom_site_fract_x
 _atom_site_fract_y
 _atom_site_fract_z
 _atom_site_occupancy
  Tl  Tl0  1  0.000000  0.000000  0.000000  1
  Pd  Pd1  1  0.500000  0.500000  0.000000  1
  Pd  Pd2  1  0.750015  0.249985  0.500000  1
  Pd  Pd3  1  0.249985  0.750015  0.500000  1
