# generated using pymatgen
data_Si5Pt12
_symmetry_space_group_name_H-M   'P 1'
_cell_length_a   5.60811463
_cell_length_b   13.56894435
_cell_length_c   13.56894435
_cell_angle_alpha   90.00000000
_cell_angle_beta   90.00000000
_cell_angle_gamma   90.00000000
_symmetry_Int_Tables_number   1
_chemical_formula_structural   Si5Pt12
_chemical_formula_sum   'Si20 Pt48'
_cell_volume   1032.54503958
_cell_formula_units_Z   4
loop_
 _symmetry_equiv_pos_site_id
 _symmetry_equiv_pos_as_xyz
  1  'x, y, z'
loop_
 _atom_site_type_symbol
 _atom_site_label
 _atom_site_symmetry_multiplicity
 _atom_site_fract_x
 _atom_site_fract_y
 _atom_site_fract_z
 _atom_site_occupancy
  Si  Si0  1  0.985523  0.634301  0.435137  1
  Si  Si1  1  0.565552  0.636758  0.942707  1
  Si  Si2  1  0.434448  0.057293  0.136758  1
  Si  Si3  1  0.434448  0.442707  0.363242  1
  Si  Si4  1  0.565552  0.863242  0.557293  1
  Si  Si5  1  0.500000  0.750000  0.250000  1
  Si  Si6  1  0.014477  0.935137  0.365699  1
  Si  Si7  1  0.985523  0.865699  0.064863  1
  Si  Si8  1  0.434448  0.363242  0.057293  1
  Si  Si9  1  0.014477  0.365699  0.564863  1
  Si  Si10  1  0.014477  0.134301  0.935137  1
  Si  Si11  1  0.985523  0.435137  0.865699  1
  Si  Si12  1  0.565552  0.557293  0.636758  1
  Si  Si13  1  0.014477  0.564863  0.134301  1
  Si  Si14  1  0.434448  0.136758  0.442707  1
  Si  Si15  1  0.944865  0.250000  0.250000  1
  Si  Si16  1  0.985523  0.064863  0.634301  1
  Si  Si17  1  0.055135  0.750000  0.750000  1
  Si  Si18  1  0.565552  0.942707  0.863242  1
  Si  Si19  1  0.500000  0.250000  0.750000  1
  Pt  Pt20  1  0.307120  0.768138  0.896842  1
  Pt  Pt21  1  0.097141  0.957156  0.916384  1
  Pt  Pt22  1  0.307120  0.896842  0.731862  1
  Pt  Pt23  1  0.692880  0.268138  0.396842  1
  Pt  Pt24  1  0.193126  0.284964  0.397193  1
  Pt  Pt25  1  0.097141  0.583616  0.957156  1
  Pt  Pt26  1  0.463059  0.963596  0.403365  1
  Pt  Pt27  1  0.307120  0.731862  0.603158  1
  Pt  Pt28  1  0.463059  0.403365  0.536404  1
  Pt  Pt29  1  0.754688  0.405750  0.712736  1
  Pt  Pt30  1  0.245312  0.905750  0.212736  1
  Pt  Pt31  1  0.806874  0.897193  0.715036  1
  Pt  Pt32  1  0.754688  0.787264  0.405750  1
  Pt  Pt33  1  0.245312  0.287264  0.905750  1
  Pt  Pt34  1  0.536941  0.596635  0.463596  1
  Pt  Pt35  1  0.902859  0.042844  0.083616  1
  Pt  Pt36  1  0.692880  0.396842  0.231862  1
  Pt  Pt37  1  0.245312  0.594250  0.287264  1
  Pt  Pt38  1  0.536941  0.903365  0.036404  1
  Pt  Pt39  1  0.692880  0.103158  0.268138  1
  Pt  Pt40  1  0.902859  0.083616  0.457156  1
  Pt  Pt41  1  0.254080  0.103788  0.769711  1
  Pt  Pt42  1  0.463059  0.536404  0.096635  1
  Pt  Pt43  1  0.245312  0.212736  0.594250  1
  Pt  Pt44  1  0.097141  0.916384  0.542844  1
  Pt  Pt45  1  0.754688  0.094250  0.787264  1
  Pt  Pt46  1  0.193126  0.215036  0.102807  1
  Pt  Pt47  1  0.463059  0.096635  0.963596  1
  Pt  Pt48  1  0.806874  0.784964  0.897193  1
  Pt  Pt49  1  0.745920  0.269711  0.896212  1
  Pt  Pt50  1  0.902859  0.416384  0.042844  1
  Pt  Pt51  1  0.536941  0.463596  0.903365  1
  Pt  Pt52  1  0.754688  0.712736  0.094250  1
  Pt  Pt53  1  0.193126  0.397193  0.215036  1
  Pt  Pt54  1  0.254080  0.396212  0.730289  1
  Pt  Pt55  1  0.806874  0.715036  0.602807  1
  Pt  Pt56  1  0.254080  0.730289  0.103788  1
  Pt  Pt57  1  0.902859  0.457156  0.416384  1
  Pt  Pt58  1  0.745920  0.603788  0.269711  1
  Pt  Pt59  1  0.193126  0.102807  0.284964  1
  Pt  Pt60  1  0.806874  0.602807  0.784964  1
  Pt  Pt61  1  0.745920  0.896212  0.230289  1
  Pt  Pt62  1  0.536941  0.036404  0.596635  1
  Pt  Pt63  1  0.097141  0.542844  0.583616  1
  Pt  Pt64  1  0.745920  0.230289  0.603788  1
  Pt  Pt65  1  0.692880  0.231862  0.103158  1
  Pt  Pt66  1  0.307120  0.603158  0.768138  1
  Pt  Pt67  1  0.254080  0.769711  0.396212  1
