# generated using pymatgen
data_KP(HO2)2
_symmetry_space_group_name_H-M   'P 1'
_cell_length_a   6.38560122
_cell_length_b   6.38560122
_cell_length_c   6.38560122
_cell_angle_alpha   107.79042209
_cell_angle_beta   107.79042209
_cell_angle_gamma   112.88779582
_symmetry_Int_Tables_number   1
_chemical_formula_structural   KP(HO2)2
_chemical_formula_sum   'K2 P2 H4 O8'
_cell_volume   199.90162237
_cell_formula_units_Z   2
loop_
 _symmetry_equiv_pos_site_id
 _symmetry_equiv_pos_as_xyz
  1  'x, y, z'
loop_
 _atom_site_type_symbol
 _atom_site_label
 _atom_site_symmetry_multiplicity
 _atom_site_fract_x
 _atom_site_fract_y
 _atom_site_fract_z
 _atom_site_occupancy
  K  K0  1  0.250000  0.750000  0.500000  1
  K  K1  1  0.500000  0.500000  0.000000  1
  P  P2  1  0.750000  0.250000  0.500000  1
  P  P3  1  0.000000  0.000000  0.000000  1
  H  H4  1  0.733036  0.125000  0.108036  1
  H  H5  1  0.016964  0.625000  0.891964  1
  H  H6  1  0.375000  0.266964  0.391964  1
  H  H7  1  0.875000  0.983036  0.608036  1
  O  O8  1  0.731009  0.286521  0.265783  1
  O  O9  1  0.729262  0.963479  0.944488  1
  O  O10  1  0.020738  0.465226  0.734217  1
  O  O11  1  0.018991  0.784774  0.055512  1
  O  O12  1  0.534774  0.268991  0.555512  1
  O  O13  1  0.036521  0.981009  0.765783  1
  O  O14  1  0.713479  0.979262  0.444488  1
  O  O15  1  0.215226  0.270738  0.234217  1
