# generated using pymatgen
data_Rb2Sn2O3
_symmetry_space_group_name_H-M   'P 1'
_cell_length_a   6.26062985
_cell_length_b   6.26062985
_cell_length_c   6.26062984
_cell_angle_alpha   59.77909529
_cell_angle_beta   59.77909530
_cell_angle_gamma   59.77909527
_symmetry_Int_Tables_number   1
_chemical_formula_structural   Rb2Sn2O3
_chemical_formula_sum   'Rb2 Sn2 O3'
_cell_volume   172.64557566
_cell_formula_units_Z   1
loop_
 _symmetry_equiv_pos_site_id
 _symmetry_equiv_pos_as_xyz
  1  'x, y, z'
loop_
 _atom_site_type_symbol
 _atom_site_label
 _atom_site_symmetry_multiplicity
 _atom_site_fract_x
 _atom_site_fract_y
 _atom_site_fract_z
 _atom_site_occupancy
  O  O0  1  0.000000  0.500000  0.000000  1
  O  O1  1  0.000000  0.000000  0.500000  1
  O  O2  1  0.500000  0.000000  0.000000  1
  Rb  Rb3  1  0.500000  0.500000  0.500000  1
  Rb  Rb4  1  0.000000  0.000000  0.000000  1
  Sn  Sn5  1  0.234742  0.234742  0.234742  1
  Sn  Sn6  1  0.765258  0.765258  0.765258  1
