# generated using pymatgen
data_Ni3C
_symmetry_space_group_name_H-M   'P 1'
_cell_length_a   5.05520291
_cell_length_b   5.05520292
_cell_length_c   5.05520292
_cell_angle_alpha   54.00566817
_cell_angle_beta   54.00566815
_cell_angle_gamma   54.00566813
_symmetry_Int_Tables_number   1
_chemical_formula_structural   Ni3C
_chemical_formula_sum   'Ni6 C2'
_cell_volume   78.55868828
_cell_formula_units_Z   2
loop_
 _symmetry_equiv_pos_site_id
 _symmetry_equiv_pos_as_xyz
  1  'x, y, z'
loop_
 _atom_site_type_symbol
 _atom_site_label
 _atom_site_symmetry_multiplicity
 _atom_site_fract_x
 _atom_site_fract_y
 _atom_site_fract_z
 _atom_site_occupancy
  C  C0  1  0.500000  0.500000  0.500000  1
  C  C1  1  0.000000  0.000000  0.000000  1
  Ni  Ni2  1  0.921832  0.250000  0.578168  1
  Ni  Ni3  1  0.421832  0.078168  0.750000  1
  Ni  Ni4  1  0.750000  0.421832  0.078168  1
  Ni  Ni5  1  0.078168  0.750000  0.421832  1
  Ni  Ni6  1  0.250000  0.578168  0.921832  1
  Ni  Ni7  1  0.578168  0.921832  0.250000  1
