# generated using pymatgen
data_SnP3
_symmetry_space_group_name_H-M   'P 1'
_cell_length_a   5.61290049
_cell_length_b   5.61290049
_cell_length_c   5.61290049
_cell_angle_alpha   83.36445416
_cell_angle_beta   83.36445413
_cell_angle_gamma   83.36445419
_symmetry_Int_Tables_number   1
_chemical_formula_structural   SnP3
_chemical_formula_sum   'Sn2 P6'
_cell_volume   173.53277376
_cell_formula_units_Z   2
loop_
 _symmetry_equiv_pos_site_id
 _symmetry_equiv_pos_as_xyz
  1  'x, y, z'
loop_
 _atom_site_type_symbol
 _atom_site_label
 _atom_site_symmetry_multiplicity
 _atom_site_fract_x
 _atom_site_fract_y
 _atom_site_fract_z
 _atom_site_occupancy
  P  P0  1  0.200702  0.200702  0.744681  1
  P  P1  1  0.200702  0.744681  0.200702  1
  P  P2  1  0.799298  0.255319  0.799298  1
  P  P3  1  0.799298  0.799298  0.255319  1
  P  P4  1  0.255319  0.799298  0.799298  1
  P  P5  1  0.744681  0.200702  0.200702  1
  Sn  Sn6  1  0.744547  0.744547  0.744547  1
  Sn  Sn7  1  0.255453  0.255453  0.255453  1
