# generated using pymatgen
data_Fe2CuO4
_symmetry_space_group_name_H-M   'P 1'
_cell_length_a   5.99694144
_cell_length_b   5.99694144
_cell_length_c   5.99694144
_cell_angle_alpha   119.60550867
_cell_angle_beta   119.60550867
_cell_angle_gamma   90.68464799
_symmetry_Int_Tables_number   1
_chemical_formula_structural   Fe2CuO4
_chemical_formula_sum   'Fe4 Cu2 O8'
_cell_volume   153.39907768
_cell_formula_units_Z   2
loop_
 _symmetry_equiv_pos_site_id
 _symmetry_equiv_pos_as_xyz
  1  'x, y, z'
loop_
 _atom_site_type_symbol
 _atom_site_label
 _atom_site_symmetry_multiplicity
 _atom_site_fract_x
 _atom_site_fract_y
 _atom_site_fract_z
 _atom_site_occupancy
  Fe  Fe0  1  0.875000  0.624992  0.249992  1
  Fe  Fe1  1  0.374992  0.125000  0.749992  1
  Fe  Fe2  1  0.375008  0.625000  0.250008  1
  Fe  Fe3  1  0.375000  0.625008  0.750008  1
  Cu  Cu4  1  0.000000  0.000000  0.000000  1
  Cu  Cu5  1  0.750000  0.250000  0.500000  1
  O  O6  1  0.610560  0.382937  0.227619  1
  O  O7  1  0.617063  0.844682  0.227622  1
  O  O8  1  0.617059  0.389440  0.772378  1
  O  O9  1  0.132941  0.405318  0.272381  1
  O  O10  1  0.139440  0.867059  0.272378  1
  O  O11  1  0.155318  0.382941  0.772381  1
  O  O12  1  0.594682  0.867063  0.727622  1
  O  O13  1  0.132937  0.860560  0.727619  1
