# generated using pymatgen
data_Cu2SiS3
_symmetry_space_group_name_H-M   'P 1'
_cell_length_a   6.08059720
_cell_length_b   6.35415046
_cell_length_c   6.35415047
_cell_angle_alpha   119.59888400
_cell_angle_beta   90.00000000
_cell_angle_gamma   90.00000000
_symmetry_Int_Tables_number   1
_chemical_formula_structural   Cu2SiS3
_chemical_formula_sum   'Si2 Cu4 S6'
_cell_volume   213.46814855
_cell_formula_units_Z   2
loop_
 _symmetry_equiv_pos_site_id
 _symmetry_equiv_pos_as_xyz
  1  'x, y, z'
loop_
 _atom_site_type_symbol
 _atom_site_label
 _atom_site_symmetry_multiplicity
 _atom_site_fract_x
 _atom_site_fract_y
 _atom_site_fract_z
 _atom_site_occupancy
  Si  Si0  1  0.989312  0.331558  0.331558  1
  Si  Si1  1  0.489312  0.668442  0.668442  1
  S  S2  1  0.394444  0.660279  0.984063  1
  S  S3  1  0.894444  0.339721  0.015937  1
  S  S4  1  0.861652  0.655827  0.655827  1
  S  S5  1  0.361652  0.344173  0.344173  1
  S  S6  1  0.394444  0.984063  0.660279  1
  S  S7  1  0.894444  0.015937  0.339721  1
  Cu  Cu8  1  0.019574  0.676466  0.998360  1
  Cu  Cu9  1  0.519574  0.323534  0.001640  1
  Cu  Cu10  1  0.519574  0.001640  0.323534  1
  Cu  Cu11  1  0.019574  0.998360  0.676466  1
