# generated using pymatgen
data_SrTa2H2O7
_symmetry_space_group_name_H-M   'P 1'
_cell_length_a   3.97816751
_cell_length_b   3.97816740
_cell_length_c   9.89162901
_cell_angle_alpha   101.60057211
_cell_angle_beta   101.60057008
_cell_angle_gamma   90.00000340
_symmetry_Int_Tables_number   1
_chemical_formula_structural   SrTa2H2O7
_chemical_formula_sum   'Sr1 Ta2 H2 O7'
_cell_volume   150.07965238
_cell_formula_units_Z   1
loop_
 _symmetry_equiv_pos_site_id
 _symmetry_equiv_pos_as_xyz
  1  'x, y, z'
loop_
 _atom_site_type_symbol
 _atom_site_label
 _atom_site_symmetry_multiplicity
 _atom_site_fract_x
 _atom_site_fract_y
 _atom_site_fract_z
 _atom_site_occupancy
  Sr  Sr0  1  -0.000000  -0.000000  -0.000000  1
  Ta  Ta1  1  0.609812  0.609812  0.219624  1
  Ta  Ta2  1  0.390188  0.390188  0.780376  1
  H  H3  1  0.760218  0.760218  0.520435  1
  H  H4  1  0.239782  0.239782  0.479565  1
  O  O5  1  0.500000  0.500000  -0.000000  1
  O  O6  1  0.290729  0.290729  0.581458  1
  O  O7  1  0.709271  0.709271  0.418542  1
  O  O8  1  0.401290  0.901290  0.802579  1
  O  O9  1  0.901290  0.401290  0.802579  1
  O  O10  1  0.098710  0.598710  0.197421  1
  O  O11  1  0.598710  0.098710  0.197421  1
