# generated using pymatgen
data_MoN
_symmetry_space_group_name_H-M   'P 1'
_cell_length_a   3.00509547
_cell_length_b   3.00474127
_cell_length_c   6.18373335
_cell_angle_alpha   90.00000000
_cell_angle_beta   90.00000000
_cell_angle_gamma   120.00389940
_symmetry_Int_Tables_number   1
_chemical_formula_structural   MoN
_chemical_formula_sum   'Mo2 N2'
_cell_volume   48.35369601
_cell_formula_units_Z   2
loop_
 _symmetry_equiv_pos_site_id
 _symmetry_equiv_pos_as_xyz
  1  'x, y, z'
loop_
 _atom_site_type_symbol
 _atom_site_label
 _atom_site_symmetry_multiplicity
 _atom_site_fract_x
 _atom_site_fract_y
 _atom_site_fract_z
 _atom_site_occupancy
  Mo  Mo0  1  0.666751  0.333501  0.526293  1
  Mo  Mo1  1  0.333249  0.666499  0.026293  1
  N  N2  1  0.666798  0.333596  0.848507  1
  N  N3  1  0.333202  0.666404  0.348507  1
