# generated using pymatgen
data_B2Mo
_symmetry_space_group_name_H-M   'P 1'
_cell_length_a   3.03070177
_cell_length_b   3.03070176
_cell_length_c   3.34920873
_cell_angle_alpha   90.00000000
_cell_angle_beta   90.00000000
_cell_angle_gamma   119.99999996
_symmetry_Int_Tables_number   1
_chemical_formula_structural   B2Mo
_chemical_formula_sum   'B2 Mo1'
_cell_volume   26.64153542
_cell_formula_units_Z   1
loop_
 _symmetry_equiv_pos_site_id
 _symmetry_equiv_pos_as_xyz
  1  'x, y, z'
loop_
 _atom_site_type_symbol
 _atom_site_label
 _atom_site_symmetry_multiplicity
 _atom_site_fract_x
 _atom_site_fract_y
 _atom_site_fract_z
 _atom_site_occupancy
  B  B0  1  0.666667  0.333333  0.500000  1
  B  B1  1  0.333333  0.666667  0.500000  1
  Mo  Mo2  1  0.000000  0.000000  0.000000  1
