# generated using pymatgen
data_CdWO4
_symmetry_space_group_name_H-M   'P 1'
_cell_length_a   5.09267784
_cell_length_b   5.20187138
_cell_length_c   6.01034152
_cell_angle_alpha   90.00000000
_cell_angle_beta   90.00000000
_cell_angle_gamma   91.81598414
_symmetry_Int_Tables_number   1
_chemical_formula_structural   CdWO4
_chemical_formula_sum   'Cd2 W2 O8'
_cell_volume   159.14272428
_cell_formula_units_Z   2
loop_
 _symmetry_equiv_pos_site_id
 _symmetry_equiv_pos_as_xyz
  1  'x, y, z'
loop_
 _atom_site_type_symbol
 _atom_site_label
 _atom_site_symmetry_multiplicity
 _atom_site_fract_x
 _atom_site_fract_y
 _atom_site_fract_z
 _atom_site_occupancy
  O  O0  1  0.755752  0.116827  0.364520  1
  O  O1  1  0.244248  0.383173  0.364520  1
  O  O2  1  0.244248  0.883173  0.635480  1
  O  O3  1  0.755752  0.616827  0.635480  1
  O  O4  1  0.799756  0.055834  0.901971  1
  O  O5  1  0.200244  0.444166  0.901971  1
  O  O6  1  0.200244  0.944166  0.098029  1
  O  O7  1  0.799756  0.555834  0.098029  1
  Cd  Cd8  1  0.500000  0.250000  0.684383  1
  Cd  Cd9  1  0.500000  0.750000  0.315617  1
  W  W10  1  0.000000  0.250000  0.168665  1
  W  W11  1  0.000000  0.750000  0.831335  1
