# generated using pymatgen
data_LiTi2N3
_symmetry_space_group_name_H-M   'P 1'
_cell_length_a   6.29451100
_cell_length_b   10.39807200
_cell_length_c   4.15750600
_cell_angle_alpha   90.00000000
_cell_angle_beta   90.00000000
_cell_angle_gamma   90.00000000
_symmetry_Int_Tables_number   1
_chemical_formula_structural   LiTi2N3
_chemical_formula_sum   'Li4 Ti8 N12'
_cell_volume   272.11200466
_cell_formula_units_Z   4
loop_
 _symmetry_equiv_pos_site_id
 _symmetry_equiv_pos_as_xyz
  1  'x, y, z'
loop_
 _atom_site_type_symbol
 _atom_site_label
 _atom_site_symmetry_multiplicity
 _atom_site_fract_x
 _atom_site_fract_y
 _atom_site_fract_z
 _atom_site_occupancy
  Li  Li0  1  0.351866  0.000000  0.250000  1
  Li  Li1  1  0.648134  0.000000  0.750000  1
  Li  Li2  1  0.851866  0.500000  0.250000  1
  Li  Li3  1  0.148134  0.500000  0.750000  1
  Ti  Ti4  1  0.830378  0.162091  0.250000  1
  Ti  Ti5  1  0.830378  0.837909  0.250000  1
  Ti  Ti6  1  0.169622  0.837909  0.750000  1
  Ti  Ti7  1  0.169622  0.162091  0.750000  1
  Ti  Ti8  1  0.330378  0.662091  0.250000  1
  Ti  Ti9  1  0.330378  0.337909  0.250000  1
  Ti  Ti10  1  0.669622  0.337909  0.750000  1
  Ti  Ti11  1  0.669622  0.662091  0.750000  1
  N  N12  1  0.352210  0.682120  0.750000  1
  N  N13  1  0.352210  0.317880  0.750000  1
  N  N14  1  0.647790  0.317880  0.250000  1
  N  N15  1  0.647790  0.682120  0.250000  1
  N  N16  1  0.300623  0.000000  0.750000  1
  N  N17  1  0.699377  0.000000  0.250000  1
  N  N18  1  0.852210  0.182120  0.750000  1
  N  N19  1  0.852210  0.817880  0.750000  1
  N  N20  1  0.147790  0.817880  0.250000  1
  N  N21  1  0.147790  0.182120  0.250000  1
  N  N22  1  0.800623  0.500000  0.750000  1
  N  N23  1  0.199377  0.500000  0.250000  1
