# generated using pymatgen
data_CaSiNi2
_symmetry_space_group_name_H-M   'P 1'
_cell_length_a   3.98480943
_cell_length_b   3.98480942
_cell_length_c   9.84389956
_cell_angle_alpha   90.00000000
_cell_angle_beta   90.00000000
_cell_angle_gamma   119.99999998
_symmetry_Int_Tables_number   1
_chemical_formula_structural   CaSiNi2
_chemical_formula_sum   'Ca2 Si2 Ni4'
_cell_volume   135.36703540
_cell_formula_units_Z   2
loop_
 _symmetry_equiv_pos_site_id
 _symmetry_equiv_pos_as_xyz
  1  'x, y, z'
loop_
 _atom_site_type_symbol
 _atom_site_label
 _atom_site_symmetry_multiplicity
 _atom_site_fract_x
 _atom_site_fract_y
 _atom_site_fract_z
 _atom_site_occupancy
  Si  Si0  1  0.000000  0.000000  0.500000  1
  Si  Si1  1  0.000000  0.000000  0.000000  1
  Ca  Ca2  1  0.666667  0.333333  0.750000  1
  Ca  Ca3  1  0.333333  0.666667  0.250000  1
  Ni  Ni4  1  0.666667  0.333333  0.458548  1
  Ni  Ni5  1  0.333333  0.666667  0.541452  1
  Ni  Ni6  1  0.333333  0.666667  0.958548  1
  Ni  Ni7  1  0.666667  0.333333  0.041452  1
