# generated using pymatgen
data_Hf2Zn
_symmetry_space_group_name_H-M   'P 1'
_cell_length_a   3.25244125
_cell_length_b   3.25244125
_cell_length_c   6.08990217
_cell_angle_alpha   105.48794316
_cell_angle_beta   105.48794316
_cell_angle_gamma   90.00000000
_symmetry_Int_Tables_number   1
_chemical_formula_structural   Hf2Zn
_chemical_formula_sum   'Hf2 Zn1'
_cell_volume   59.65088901
_cell_formula_units_Z   1
loop_
 _symmetry_equiv_pos_site_id
 _symmetry_equiv_pos_as_xyz
  1  'x, y, z'
loop_
 _atom_site_type_symbol
 _atom_site_label
 _atom_site_symmetry_multiplicity
 _atom_site_fract_x
 _atom_site_fract_y
 _atom_site_fract_z
 _atom_site_occupancy
  Hf  Hf0  1  0.658818  0.658818  0.317635  1
  Hf  Hf1  1  0.341182  0.341182  0.682365  1
  Zn  Zn2  1  0.000000  0.000000  0.000000  1
