# generated using pymatgen
data_Sr2CrO4
_symmetry_space_group_name_H-M   'P 1'
_cell_length_a   3.83412427
_cell_length_b   3.83412427
_cell_length_c   6.97429250
_cell_angle_alpha   105.95459493
_cell_angle_beta   105.95459487
_cell_angle_gamma   89.99999999
_symmetry_Int_Tables_number   1
_chemical_formula_structural   Sr2CrO4
_chemical_formula_sum   'Sr2 Cr1 O4'
_cell_volume   94.46206774
_cell_formula_units_Z   1
loop_
 _symmetry_equiv_pos_site_id
 _symmetry_equiv_pos_as_xyz
  1  'x, y, z'
loop_
 _atom_site_type_symbol
 _atom_site_label
 _atom_site_symmetry_multiplicity
 _atom_site_fract_x
 _atom_site_fract_y
 _atom_site_fract_z
 _atom_site_occupancy
  O  O0  1  0.841784  0.841784  0.683570  1
  O  O1  1  0.158215  0.158214  0.316430  1
  O  O2  1  0.999999  0.500001  0.000001  1
  O  O3  1  0.500001  1.000000  0.000001  1
  Cr  Cr4  1  0.000000  0.000000  0.000000  1
  Sr  Sr5  1  0.647605  0.647606  0.295213  1
  Sr  Sr6  1  0.352394  0.352394  0.704787  1
