# generated using pymatgen
data_NbNi3
_symmetry_space_group_name_H-M   'P 1'
_cell_length_a   4.25761281
_cell_length_b   4.55570950
_cell_length_c   5.11701964
_cell_angle_alpha   90.00000000
_cell_angle_beta   90.00000000
_cell_angle_gamma   90.00000000
_symmetry_Int_Tables_number   1
_chemical_formula_structural   NbNi3
_chemical_formula_sum   'Nb2 Ni6'
_cell_volume   99.25200089
_cell_formula_units_Z   2
loop_
 _symmetry_equiv_pos_site_id
 _symmetry_equiv_pos_as_xyz
  1  'x, y, z'
loop_
 _atom_site_type_symbol
 _atom_site_label
 _atom_site_symmetry_multiplicity
 _atom_site_fract_x
 _atom_site_fract_y
 _atom_site_fract_z
 _atom_site_occupancy
  Ni  Ni0  1  0.250000  0.317342  0.250000  1
  Ni  Ni1  1  0.750000  0.682658  0.750000  1
  Ni  Ni2  1  0.750000  0.158617  0.499472  1
  Ni  Ni3  1  0.250000  0.841383  0.500528  1
  Ni  Ni4  1  0.250000  0.841383  0.999472  1
  Ni  Ni5  1  0.750000  0.158617  0.000528  1
  Nb  Nb6  1  0.250000  0.349105  0.750000  1
  Nb  Nb7  1  0.750000  0.650895  0.250000  1
