# generated using pymatgen
data_NiSeO4
_symmetry_space_group_name_H-M   'P 1'
_cell_length_a   4.96636171
_cell_length_b   4.96636062
_cell_length_c   6.45651009
_cell_angle_alpha   90.00000000
_cell_angle_beta   90.00000000
_cell_angle_gamma   113.03674632
_symmetry_Int_Tables_number   1
_chemical_formula_structural   NiSeO4
_chemical_formula_sum   'Ni2 Se2 O8'
_cell_volume   146.54877077
_cell_formula_units_Z   2
loop_
 _symmetry_equiv_pos_site_id
 _symmetry_equiv_pos_as_xyz
  1  'x, y, z'
loop_
 _atom_site_type_symbol
 _atom_site_label
 _atom_site_symmetry_multiplicity
 _atom_site_fract_x
 _atom_site_fract_y
 _atom_site_fract_z
 _atom_site_occupancy
  Ni  Ni0  1  0.000000  0.000000  0.000000  1
  Ni  Ni1  1  0.000000  0.000000  0.500000  1
  Se  Se2  1  0.650339  0.349661  0.250000  1
  Se  Se3  1  0.349661  0.650339  0.750000  1
  O  O4  1  0.755602  0.244398  0.467334  1
  O  O5  1  0.722875  0.774209  0.750000  1
  O  O6  1  0.774209  0.722875  0.250000  1
  O  O7  1  0.755602  0.244398  0.032666  1
  O  O8  1  0.244398  0.755602  0.967334  1
  O  O9  1  0.277125  0.225791  0.250000  1
  O  O10  1  0.244398  0.755602  0.532666  1
  O  O11  1  0.225791  0.277125  0.750000  1
