# generated using pymatgen
data_GeSe2
_symmetry_space_group_name_H-M   'P 1'
_cell_length_a   6.15780876
_cell_length_b   6.15780876
_cell_length_c   9.54442061
_cell_angle_alpha   90.00000000
_cell_angle_beta   90.00000000
_cell_angle_gamma   90.00000000
_symmetry_Int_Tables_number   1
_chemical_formula_structural   GeSe2
_chemical_formula_sum   'Ge4 Se8'
_cell_volume   361.91115061
_cell_formula_units_Z   4
loop_
 _symmetry_equiv_pos_site_id
 _symmetry_equiv_pos_as_xyz
  1  'x, y, z'
loop_
 _atom_site_type_symbol
 _atom_site_label
 _atom_site_symmetry_multiplicity
 _atom_site_fract_x
 _atom_site_fract_y
 _atom_site_fract_z
 _atom_site_occupancy
  Ge  Ge0  1  0.500000  0.500000  0.500000  1
  Ge  Ge1  1  0.000000  0.000000  0.000000  1
  Ge  Ge2  1  0.500000  0.000000  0.750202  1
  Ge  Ge3  1  0.000000  0.500000  0.249798  1
  Se  Se4  1  0.250734  0.771779  0.875700  1
  Se  Se5  1  0.250387  0.728253  0.374582  1
  Se  Se6  1  0.728253  0.749614  0.625418  1
  Se  Se7  1  0.771779  0.749266  0.124300  1
  Se  Se8  1  0.749266  0.228220  0.875700  1
  Se  Se9  1  0.228220  0.250734  0.124300  1
  Se  Se10  1  0.749614  0.271747  0.374582  1
  Se  Se11  1  0.271747  0.250387  0.625418  1
