# generated using pymatgen
data_Si(NiO2)2
_symmetry_space_group_name_H-M   'P 1'
_cell_length_a   5.74027048
_cell_length_b   5.74027048
_cell_length_c   5.74027048
_cell_angle_alpha   59.99999999
_cell_angle_beta   60.00000000
_cell_angle_gamma   60.00000003
_symmetry_Int_Tables_number   1
_chemical_formula_structural   Si(NiO2)2
_chemical_formula_sum   'Si2 Ni4 O8'
_cell_volume   133.74639111
_cell_formula_units_Z   2
loop_
 _symmetry_equiv_pos_site_id
 _symmetry_equiv_pos_as_xyz
  1  'x, y, z'
loop_
 _atom_site_type_symbol
 _atom_site_label
 _atom_site_symmetry_multiplicity
 _atom_site_fract_x
 _atom_site_fract_y
 _atom_site_fract_z
 _atom_site_occupancy
  O  O0  1  0.756127  0.756127  0.756127  1
  O  O1  1  0.243873  0.243873  0.768381  1
  O  O2  1  0.243873  0.768381  0.243873  1
  O  O3  1  0.768381  0.243873  0.243873  1
  O  O4  1  0.756127  0.231619  0.756127  1
  O  O5  1  0.231619  0.756127  0.756127  1
  O  O6  1  0.243873  0.243873  0.243873  1
  O  O7  1  0.756127  0.756127  0.231619  1
  Si  Si8  1  0.125000  0.125000  0.125000  1
  Si  Si9  1  0.875000  0.875000  0.875000  1
  Ni  Ni10  1  0.500000  0.500000  0.000000  1
  Ni  Ni11  1  0.500000  0.500000  0.500000  1
  Ni  Ni12  1  0.000000  0.500000  0.500000  1
  Ni  Ni13  1  0.500000  0.000000  0.500000  1
