# generated using pymatgen
data_LiYSi
_symmetry_space_group_name_H-M   'P 1'
_cell_length_a   7.03076792
_cell_length_b   7.03076792
_cell_length_c   4.22881683
_cell_angle_alpha   90.00000000
_cell_angle_beta   90.00000000
_cell_angle_gamma   119.99999999
_symmetry_Int_Tables_number   1
_chemical_formula_structural   LiYSi
_chemical_formula_sum   'Li3 Y3 Si3'
_cell_volume   181.03186729
_cell_formula_units_Z   3
loop_
 _symmetry_equiv_pos_site_id
 _symmetry_equiv_pos_as_xyz
  1  'x, y, z'
loop_
 _atom_site_type_symbol
 _atom_site_label
 _atom_site_symmetry_multiplicity
 _atom_site_fract_x
 _atom_site_fract_y
 _atom_site_fract_z
 _atom_site_occupancy
  Li  Li0  1  0.232429  0.000000  0.500000  1
  Li  Li1  1  0.767571  0.767571  0.500000  1
  Li  Li2  1  0.000000  0.232429  0.500000  1
  Si  Si3  1  0.333333  0.666667  0.500000  1
  Si  Si4  1  0.666667  0.333333  0.500000  1
  Si  Si5  1  0.000000  0.000000  0.000000  1
  Y  Y6  1  0.000000  0.575233  0.000000  1
  Y  Y7  1  0.575233  0.000000  0.000000  1
  Y  Y8  1  0.424767  0.424767  0.000000  1
