# generated using pymatgen
data_V3S4
_symmetry_space_group_name_H-M   'P 1'
_cell_length_a   3.24743052
_cell_length_b   5.85975427
_cell_length_c   11.41397810
_cell_angle_alpha   87.83055177
_cell_angle_beta   90.00000038
_cell_angle_gamma   90.00000350
_symmetry_Int_Tables_number   1
_chemical_formula_structural   V3S4
_chemical_formula_sum   'V6 S8'
_cell_volume   217.04256426
_cell_formula_units_Z   2
loop_
 _symmetry_equiv_pos_site_id
 _symmetry_equiv_pos_as_xyz
  1  'x, y, z'
loop_
 _atom_site_type_symbol
 _atom_site_label
 _atom_site_symmetry_multiplicity
 _atom_site_fract_x
 _atom_site_fract_y
 _atom_site_fract_z
 _atom_site_occupancy
  V  V0  1  0.000000  0.999465  0.999777  1
  V  V1  1  0.500000  0.499279  0.499859  1
  V  V2  1  0.500000  0.440043  0.242577  1
  V  V3  1  0.000000  0.939367  0.742567  1
  V  V4  1  1.000000  0.060185  0.257578  1
  V  V5  1  0.500000  0.560594  0.757632  1
  S  S6  1  0.500000  0.839547  0.140146  1
  S  S7  1  1.000000  0.339586  0.640249  1
  S  S8  1  1.000000  0.661066  0.360052  1
  S  S9  1  0.500000  0.160740  0.859717  1
  S  S10  1  0.500000  0.161242  0.389630  1
  S  S11  1  1.000000  0.660753  0.889877  1
  S  S12  1  1.000000  0.339039  0.110244  1
  S  S13  1  0.500000  0.839094  0.610095  1
