# generated using pymatgen
data_HfSi2
_symmetry_space_group_name_H-M   'P 1'
_cell_length_a   3.66245466
_cell_length_b   3.68577272
_cell_length_c   7.51671996
_cell_angle_alpha   104.19197572
_cell_angle_beta   90.00000000
_cell_angle_gamma   90.00000000
_symmetry_Int_Tables_number   1
_chemical_formula_structural   HfSi2
_chemical_formula_sum   'Hf2 Si4'
_cell_volume   98.37118360
_cell_formula_units_Z   2
loop_
 _symmetry_equiv_pos_site_id
 _symmetry_equiv_pos_as_xyz
  1  'x, y, z'
loop_
 _atom_site_type_symbol
 _atom_site_label
 _atom_site_symmetry_multiplicity
 _atom_site_fract_x
 _atom_site_fract_y
 _atom_site_fract_z
 _atom_site_occupancy
  Si  Si0  1  0.250000  0.250361  0.500721  1
  Si  Si1  1  0.750000  0.749639  0.499279  1
  Si  Si2  1  0.750000  0.445614  0.891228  1
  Si  Si3  1  0.250000  0.554386  0.108772  1
  Hf  Hf4  1  0.250000  0.894942  0.789883  1
  Hf  Hf5  1  0.750000  0.105058  0.210117  1
