# generated using pymatgen
data_TlSe
_symmetry_space_group_name_H-M   'P 1'
_cell_length_a   6.84603649
_cell_length_b   6.84603649
_cell_length_c   6.84603649
_cell_angle_alpha   105.85528229
_cell_angle_beta   105.85528227
_cell_angle_gamma   116.97379596
_symmetry_Int_Tables_number   1
_chemical_formula_structural   TlSe
_chemical_formula_sum   'Tl4 Se4'
_cell_volume   243.78364854
_cell_formula_units_Z   4
loop_
 _symmetry_equiv_pos_site_id
 _symmetry_equiv_pos_as_xyz
  1  'x, y, z'
loop_
 _atom_site_type_symbol
 _atom_site_label
 _atom_site_symmetry_multiplicity
 _atom_site_fract_x
 _atom_site_fract_y
 _atom_site_fract_z
 _atom_site_occupancy
  Se  Se0  1  0.676918  0.176918  0.853835  1
  Se  Se1  1  0.176918  0.323082  0.500000  1
  Se  Se2  1  0.823082  0.676918  0.500000  1
  Se  Se3  1  0.323082  0.823082  0.146165  1
  Tl  Tl4  1  0.250000  0.250000  0.000000  1
  Tl  Tl5  1  0.750000  0.750000  0.000000  1
  Tl  Tl6  1  0.750000  0.250000  0.500000  1
  Tl  Tl7  1  0.250000  0.750000  0.500000  1
