# generated using pymatgen
data_Sr5P3BrO12
_symmetry_space_group_name_H-M   'P 1'
_cell_length_a   10.10750308
_cell_length_b   10.10750334
_cell_length_c   7.27172812
_cell_angle_alpha   90.00000000
_cell_angle_beta   90.00000000
_cell_angle_gamma   119.99999914
_symmetry_Int_Tables_number   1
_chemical_formula_structural   Sr5P3BrO12
_chemical_formula_sum   'Sr10 P6 Br2 O24'
_cell_volume   643.36294582
_cell_formula_units_Z   2
loop_
 _symmetry_equiv_pos_site_id
 _symmetry_equiv_pos_as_xyz
  1  'x, y, z'
loop_
 _atom_site_type_symbol
 _atom_site_label
 _atom_site_symmetry_multiplicity
 _atom_site_fract_x
 _atom_site_fract_y
 _atom_site_fract_z
 _atom_site_occupancy
  Br  Br0  1  0.000000  0.000000  0.500000  1
  Br  Br1  1  0.000000  0.000000  0.000000  1
  O  O2  1  0.535599  0.122137  0.250000  1
  O  O3  1  0.518255  0.858835  0.250000  1
  O  O4  1  0.413462  0.535599  0.750000  1
  O  O5  1  0.731674  0.089303  0.423572  1
  O  O6  1  0.731674  0.089303  0.076428  1
  O  O7  1  0.858835  0.340580  0.750000  1
  O  O8  1  0.642372  0.731674  0.923572  1
  O  O9  1  0.642372  0.731674  0.576428  1
  O  O10  1  0.122137  0.586538  0.750000  1
  O  O11  1  0.089303  0.357628  0.576428  1
  O  O12  1  0.089303  0.357628  0.923572  1
  O  O13  1  0.659420  0.518255  0.750000  1
  O  O14  1  0.340580  0.481745  0.250000  1
  O  O15  1  0.910698  0.642372  0.076428  1
  O  O16  1  0.910698  0.642372  0.423572  1
  O  O17  1  0.877863  0.413462  0.250000  1
  O  O18  1  0.357628  0.268326  0.423572  1
  O  O19  1  0.357628  0.268326  0.076428  1
  O  O20  1  0.141165  0.659420  0.250000  1
  O  O21  1  0.268326  0.910698  0.923572  1
  O  O22  1  0.268326  0.910698  0.576428  1
  O  O23  1  0.586538  0.464401  0.250000  1
  O  O24  1  0.481745  0.141165  0.750000  1
  O  O25  1  0.464401  0.877863  0.750000  1
  P  P26  1  0.627856  0.035355  0.250000  1
  P  P27  1  0.592501  0.627856  0.750000  1
  P  P28  1  0.035355  0.407499  0.750000  1
  P  P29  1  0.964645  0.592501  0.250000  1
  P  P30  1  0.407499  0.372144  0.250000  1
  P  P31  1  0.372144  0.964645  0.750000  1
  Sr  Sr32  1  0.257732  0.995566  0.250000  1
  Sr  Sr33  1  0.004434  0.262166  0.250000  1
  Sr  Sr34  1  0.333333  0.666667  0.499029  1
  Sr  Sr35  1  0.333333  0.666667  1.000971  1
  Sr  Sr36  1  0.262166  0.257732  0.750000  1
  Sr  Sr37  1  0.737834  0.742268  0.250000  1
  Sr  Sr38  1  0.666667  0.333333  0.500971  1
  Sr  Sr39  1  0.666667  0.333333  -0.000971  1
  Sr  Sr40  1  0.995566  0.737834  0.750000  1
  Sr  Sr41  1  0.742268  0.004434  0.750000  1
