# generated using pymatgen
data_ReO3
_symmetry_space_group_name_H-M   'P 1'
_cell_length_a   6.56527260
_cell_length_b   6.56527260
_cell_length_c   6.56527260
_cell_angle_alpha   109.47122064
_cell_angle_beta   109.47122063
_cell_angle_gamma   109.47122061
_symmetry_Int_Tables_number   1
_chemical_formula_structural   ReO3
_chemical_formula_sum   'Re4 O12'
_cell_volume   217.83938359
_cell_formula_units_Z   4
loop_
 _symmetry_equiv_pos_site_id
 _symmetry_equiv_pos_as_xyz
  1  'x, y, z'
loop_
 _atom_site_type_symbol
 _atom_site_label
 _atom_site_symmetry_multiplicity
 _atom_site_fract_x
 _atom_site_fract_y
 _atom_site_fract_z
 _atom_site_occupancy
  O  O0  1  0.500240  0.742171  0.758069  1
  O  O1  1  0.984102  0.742171  0.241931  1
  O  O2  1  0.015898  0.257829  0.758069  1
  O  O3  1  0.257829  0.241931  0.499760  1
  O  O4  1  0.499760  0.257829  0.241931  1
  O  O5  1  0.257829  0.758069  0.015898  1
  O  O6  1  0.241931  0.984102  0.742171  1
  O  O7  1  0.742171  0.758069  0.500240  1
  O  O8  1  0.758069  0.015898  0.257829  1
  O  O9  1  0.742171  0.241931  0.984102  1
  O  O10  1  0.758069  0.500240  0.742171  1
  O  O11  1  0.241931  0.499760  0.257829  1
  Re  Re12  1  0.500000  0.000000  0.000000  1
  Re  Re13  1  0.000000  0.000000  0.500000  1
  Re  Re14  1  0.000000  0.500000  0.000000  1
  Re  Re15  1  0.500000  0.500000  0.500000  1
