# generated using pymatgen
data_Al2Fe3Si4
_symmetry_space_group_name_H-M   'P 1'
_cell_length_a   3.65801172
_cell_length_b   6.37678756
_cell_length_c   10.08118524
_cell_angle_alpha   90.00000000
_cell_angle_beta   90.00000000
_cell_angle_gamma   106.66781629
_symmetry_Int_Tables_number   1
_chemical_formula_structural   Al2Fe3Si4
_chemical_formula_sum   'Al4 Fe6 Si8'
_cell_volume   225.27696279
_cell_formula_units_Z   2
loop_
 _symmetry_equiv_pos_site_id
 _symmetry_equiv_pos_as_xyz
  1  'x, y, z'
loop_
 _atom_site_type_symbol
 _atom_site_label
 _atom_site_symmetry_multiplicity
 _atom_site_fract_x
 _atom_site_fract_y
 _atom_site_fract_z
 _atom_site_occupancy
  Al  Al0  1  0.057620  0.115240  0.109239  1
  Al  Al1  1  0.942380  0.884760  0.890761  1
  Al  Al2  1  0.942380  0.884760  0.609239  1
  Al  Al3  1  0.057620  0.115240  0.390761  1
  Si  Si4  1  0.319544  0.639087  0.513286  1
  Si  Si5  1  0.680456  0.360913  0.486714  1
  Si  Si6  1  0.545323  0.090645  0.750000  1
  Si  Si7  1  0.454677  0.909355  0.250000  1
  Si  Si8  1  0.740390  0.480781  0.750000  1
  Si  Si9  1  0.259610  0.519219  0.250000  1
  Si  Si10  1  0.319544  0.639087  0.986714  1
  Si  Si11  1  0.680456  0.360913  0.013286  1
  Fe  Fe12  1  0.647712  0.295423  0.250000  1
  Fe  Fe13  1  0.352288  0.704577  0.750000  1
  Fe  Fe14  1  0.149573  0.299145  0.625376  1
  Fe  Fe15  1  0.850427  0.700855  0.374624  1
  Fe  Fe16  1  0.850427  0.700855  0.125376  1
  Fe  Fe17  1  0.149573  0.299145  0.874624  1
