# generated using pymatgen
data_ZnCN2
_symmetry_space_group_name_H-M   'P 1'
_cell_length_a   5.41808026
_cell_length_b   6.91631411
_cell_length_c   6.91631412
_cell_angle_alpha   81.17483773
_cell_angle_beta   66.94040147
_cell_angle_gamma   66.94040143
_symmetry_Int_Tables_number   1
_chemical_formula_structural   ZnCN2
_chemical_formula_sum   'Zn4 C4 N8'
_cell_volume   219.41330057
_cell_formula_units_Z   4
loop_
 _symmetry_equiv_pos_site_id
 _symmetry_equiv_pos_as_xyz
  1  'x, y, z'
loop_
 _atom_site_type_symbol
 _atom_site_label
 _atom_site_symmetry_multiplicity
 _atom_site_fract_x
 _atom_site_fract_y
 _atom_site_fract_z
 _atom_site_occupancy
  C  C0  1  0.696140  0.178860  0.678860  1
  C  C1  1  0.625000  0.678860  0.821140  1
  C  C2  1  0.553860  0.821140  0.321140  1
  C  C3  1  0.125000  0.321140  0.178860  1
  N  N4  1  0.271163  0.383851  0.234342  1
  N  N5  1  0.344986  0.765658  0.383851  1
  N  N6  1  0.889356  0.616149  0.765658  1
  N  N7  1  0.494495  0.234342  0.616149  1
  N  N8  1  0.978837  0.265658  0.116149  1
  N  N9  1  0.905014  0.116149  0.734342  1
  N  N10  1  0.755505  0.883851  0.265658  1
  N  N11  1  0.360644  0.734342  0.883851  1
  Zn  Zn12  1  0.171686  0.703314  0.203314  1
  Zn  Zn13  1  0.625000  0.203314  0.296686  1
  Zn  Zn14  1  0.125000  0.796686  0.703314  1
  Zn  Zn15  1  0.078314  0.296686  0.796686  1
