# generated using pymatgen
data_TiSi
_symmetry_space_group_name_H-M   'P 1'
_cell_length_a   3.63662366
_cell_length_b   4.72461278
_cell_length_c   4.72461278
_cell_angle_alpha   53.26871894
_cell_angle_beta   67.36498557
_cell_angle_gamma   67.36498557
_symmetry_Int_Tables_number   1
_chemical_formula_structural   TiSi
_chemical_formula_sum   'Ti2 Si2'
_cell_volume   58.72011700
_cell_formula_units_Z   2
loop_
 _symmetry_equiv_pos_site_id
 _symmetry_equiv_pos_as_xyz
  1  'x, y, z'
loop_
 _atom_site_type_symbol
 _atom_site_label
 _atom_site_symmetry_multiplicity
 _atom_site_fract_x
 _atom_site_fract_y
 _atom_site_fract_z
 _atom_site_occupancy
  Ti  Ti0  1  0.500000  0.454226  0.545774  1
  Ti  Ti1  1  0.000000  0.953322  0.046678  1
  Si  Si2  1  0.749955  0.694771  0.805320  1
  Si  Si3  1  0.250045  0.194680  0.305229  1
