# generated using pymatgen
data_K3BiSe3
_symmetry_space_group_name_H-M   'P 1'
_cell_length_a   9.95437360
_cell_length_b   9.95437360
_cell_length_c   9.95437360
_cell_angle_alpha   90.00000000
_cell_angle_beta   90.00000000
_cell_angle_gamma   90.00000000
_symmetry_Int_Tables_number   1
_chemical_formula_structural   K3BiSe3
_chemical_formula_sum   'K12 Bi4 Se12'
_cell_volume   986.37443807
_cell_formula_units_Z   4
loop_
 _symmetry_equiv_pos_site_id
 _symmetry_equiv_pos_as_xyz
  1  'x, y, z'
loop_
 _atom_site_type_symbol
 _atom_site_label
 _atom_site_symmetry_multiplicity
 _atom_site_fract_x
 _atom_site_fract_y
 _atom_site_fract_z
 _atom_site_occupancy
  K  K0  1  0.321782  0.321782  0.321782  1
  K  K1  1  0.178218  0.678218  0.821782  1
  K  K2  1  0.821782  0.178218  0.678218  1
  K  K3  1  0.678218  0.821782  0.178218  1
  K  K4  1  0.572535  0.572535  0.572535  1
  K  K5  1  0.927465  0.427465  0.072535  1
  K  K6  1  0.072535  0.927465  0.427465  1
  K  K7  1  0.427465  0.072535  0.927465  1
  K  K8  1  0.813792  0.813792  0.813792  1
  K  K9  1  0.686208  0.186208  0.313792  1
  K  K10  1  0.313792  0.686208  0.186208  1
  K  K11  1  0.186208  0.313792  0.686208  1
  Bi  Bi12  1  0.033936  0.033936  0.033936  1
  Bi  Bi13  1  0.466064  0.966064  0.533936  1
  Bi  Bi14  1  0.533936  0.466064  0.966064  1
  Bi  Bi15  1  0.966064  0.533936  0.466064  1
  Se  Se16  1  0.223831  0.611589  0.498340  1
  Se  Se17  1  0.498340  0.223831  0.611589  1
  Se  Se18  1  0.611589  0.498340  0.223831  1
  Se  Se19  1  0.888411  0.501660  0.723831  1
  Se  Se20  1  0.998340  0.276169  0.388411  1
  Se  Se21  1  0.388411  0.998340  0.276169  1
  Se  Se22  1  0.001660  0.776169  0.111589  1
  Se  Se23  1  0.501660  0.723831  0.888411  1
  Se  Se24  1  0.111589  0.001660  0.776169  1
  Se  Se25  1  0.723831  0.888411  0.501660  1
  Se  Se26  1  0.776169  0.111589  0.001660  1
  Se  Se27  1  0.276169  0.388411  0.998340  1
