# generated using pymatgen
data_Mn(GaS2)2
_symmetry_space_group_name_H-M   'P 1'
_cell_length_a   5.51805835
_cell_length_b   5.51805834
_cell_length_c   6.50195709
_cell_angle_alpha   115.10878476
_cell_angle_beta   115.10878479
_cell_angle_gamma   89.99999999
_symmetry_Int_Tables_number   1
_chemical_formula_structural   Mn(GaS2)2
_chemical_formula_sum   'Mn1 Ga2 S4'
_cell_volume   158.36672441
_cell_formula_units_Z   1
loop_
 _symmetry_equiv_pos_site_id
 _symmetry_equiv_pos_as_xyz
  1  'x, y, z'
loop_
 _atom_site_type_symbol
 _atom_site_label
 _atom_site_symmetry_multiplicity
 _atom_site_fract_x
 _atom_site_fract_y
 _atom_site_fract_z
 _atom_site_occupancy
  S  S0  1  0.881548  0.865436  0.242201  1
  S  S1  1  0.623235  0.118452  0.757799  1
  S  S2  1  0.134564  0.639348  0.757799  1
  S  S3  1  0.360652  0.376765  0.242201  1
  Mn  Mn4  1  0.750000  0.250000  0.500000  1
  Ga  Ga5  1  0.250000  0.750000  0.500000  1
  Ga  Ga6  1  0.000000  0.000000  0.000000  1
