# generated using pymatgen
data_Sr2NiMoO6
_symmetry_space_group_name_H-M   'P 1'
_cell_length_a   5.60910195
_cell_length_b   5.60910176
_cell_length_c   5.60910245
_cell_angle_alpha   59.99999586
_cell_angle_beta   59.99999697
_cell_angle_gamma   59.99999687
_symmetry_Int_Tables_number   1
_chemical_formula_structural   Sr2NiMoO6
_chemical_formula_sum   'Sr2 Ni1 Mo1 O6'
_cell_volume   124.78574985
_cell_formula_units_Z   1
loop_
 _symmetry_equiv_pos_site_id
 _symmetry_equiv_pos_as_xyz
  1  'x, y, z'
loop_
 _atom_site_type_symbol
 _atom_site_label
 _atom_site_symmetry_multiplicity
 _atom_site_fract_x
 _atom_site_fract_y
 _atom_site_fract_z
 _atom_site_occupancy
  Sr  Sr0  1  0.250000  0.250000  0.250000  1
  Sr  Sr1  1  0.750000  0.750000  0.750000  1
  Mo  Mo2  1  0.000000  0.000000  0.000000  1
  Ni  Ni3  1  0.500000  0.500000  0.500000  1
  O  O4  1  0.754904  0.245096  0.245096  1
  O  O5  1  0.754904  0.754904  0.245096  1
  O  O6  1  0.245096  0.245096  0.754904  1
  O  O7  1  0.754904  0.245096  0.754904  1
  O  O8  1  0.245096  0.754904  0.245096  1
  O  O9  1  0.245096  0.754904  0.754904  1
