# generated using pymatgen
data_MgMnGe
_symmetry_space_group_name_H-M   'P 1'
_cell_length_a   3.88482431
_cell_length_b   3.88219842
_cell_length_c   6.51204876
_cell_angle_alpha   89.99634052
_cell_angle_beta   90.02529159
_cell_angle_gamma   89.97916557
_symmetry_Int_Tables_number   1
_chemical_formula_structural   MgMnGe
_chemical_formula_sum   'Mg2 Mn2 Ge2'
_cell_volume   98.21248112
_cell_formula_units_Z   2
loop_
 _symmetry_equiv_pos_site_id
 _symmetry_equiv_pos_as_xyz
  1  'x, y, z'
loop_
 _atom_site_type_symbol
 _atom_site_label
 _atom_site_symmetry_multiplicity
 _atom_site_fract_x
 _atom_site_fract_y
 _atom_site_fract_z
 _atom_site_occupancy
  Mg  Mg0  1  0.249868  0.249963  0.167845  1
  Mg  Mg1  1  0.750102  0.749854  0.832203  1
  Mn  Mn2  1  0.749893  0.249955  0.500032  1
  Mn  Mn3  1  0.250099  0.750083  0.499941  1
  Ge  Ge4  1  0.749878  0.750018  0.261417  1
  Ge  Ge5  1  0.250159  0.250127  0.738562  1
