# generated using pymatgen
data_Ta2InC
_symmetry_space_group_name_H-M   'P 1'
_cell_length_a   3.16751380
_cell_length_b   3.16751380
_cell_length_c   14.53348001
_cell_angle_alpha   90.00000000
_cell_angle_beta   90.00000000
_cell_angle_gamma   119.99999998
_symmetry_Int_Tables_number   1
_chemical_formula_structural   Ta2InC
_chemical_formula_sum   'Ta4 In2 C2'
_cell_volume   126.28078735
_cell_formula_units_Z   2
loop_
 _symmetry_equiv_pos_site_id
 _symmetry_equiv_pos_as_xyz
  1  'x, y, z'
loop_
 _atom_site_type_symbol
 _atom_site_label
 _atom_site_symmetry_multiplicity
 _atom_site_fract_x
 _atom_site_fract_y
 _atom_site_fract_z
 _atom_site_occupancy
  C  C0  1  0.000000  0.000000  0.000000  1
  C  C1  1  0.000000  0.000000  0.500000  1
  In  In2  1  0.333333  0.666667  0.750000  1
  In  In3  1  0.666667  0.333333  0.250000  1
  Ta  Ta4  1  0.333333  0.666667  0.082972  1
  Ta  Ta5  1  0.666667  0.333333  0.582972  1
  Ta  Ta6  1  0.666667  0.333333  0.917028  1
  Ta  Ta7  1  0.333333  0.666667  0.417028  1
