# generated using pymatgen
data_Cr2Te3
_symmetry_space_group_name_H-M   'P 1'
_cell_length_a   6.88510543
_cell_length_b   6.88510540
_cell_length_c   12.29143252
_cell_angle_alpha   90.00000000
_cell_angle_beta   90.00000000
_cell_angle_gamma   120.00000020
_symmetry_Int_Tables_number   1
_chemical_formula_structural   Cr2Te3
_chemical_formula_sum   'Cr8 Te12'
_cell_volume   504.60821877
_cell_formula_units_Z   4
loop_
 _symmetry_equiv_pos_site_id
 _symmetry_equiv_pos_as_xyz
  1  'x, y, z'
loop_
 _atom_site_type_symbol
 _atom_site_label
 _atom_site_symmetry_multiplicity
 _atom_site_fract_x
 _atom_site_fract_y
 _atom_site_fract_z
 _atom_site_occupancy
  Cr  Cr0  1  0.333333  0.666667  0.506800  1
  Cr  Cr1  1  0.333333  0.666667  0.250000  1
  Cr  Cr2  1  0.333333  0.666667  0.993200  1
  Cr  Cr3  1  0.000000  0.000000  0.000000  1
  Cr  Cr4  1  0.666667  0.333333  0.006800  1
  Cr  Cr5  1  0.000000  0.000000  0.500000  1
  Cr  Cr6  1  0.666667  0.333333  0.750000  1
  Cr  Cr7  1  0.666667  0.333333  0.493200  1
  Te  Te8  1  0.666378  0.995559  0.123310  1
  Te  Te9  1  0.670818  0.004441  0.623310  1
  Te  Te10  1  0.670818  0.666378  0.876690  1
  Te  Te11  1  0.004441  0.333622  0.376690  1
  Te  Te12  1  0.666378  0.670818  0.376690  1
  Te  Te13  1  0.995559  0.329182  0.876690  1
  Te  Te14  1  0.004441  0.670818  0.123310  1
  Te  Te15  1  0.333622  0.329182  0.623310  1
  Te  Te16  1  0.995559  0.666378  0.623310  1
  Te  Te17  1  0.329182  0.333622  0.123310  1
  Te  Te18  1  0.329182  0.995559  0.376690  1
  Te  Te19  1  0.333622  0.004441  0.876690  1
