# generated using pymatgen
data_Cs2WCl6
_symmetry_space_group_name_H-M   'P 1'
_cell_length_a   7.49211762
_cell_length_b   7.49211763
_cell_length_c   7.49211763
_cell_angle_alpha   60.00000003
_cell_angle_beta   60.00000001
_cell_angle_gamma   60.00000005
_symmetry_Int_Tables_number   1
_chemical_formula_structural   Cs2WCl6
_chemical_formula_sum   'Cs2 W1 Cl6'
_cell_volume   297.37110323
_cell_formula_units_Z   1
loop_
 _symmetry_equiv_pos_site_id
 _symmetry_equiv_pos_as_xyz
  1  'x, y, z'
loop_
 _atom_site_type_symbol
 _atom_site_label
 _atom_site_symmetry_multiplicity
 _atom_site_fract_x
 _atom_site_fract_y
 _atom_site_fract_z
 _atom_site_occupancy
  Cl  Cl0  1  0.773378  0.226622  0.226622  1
  Cl  Cl1  1  0.773378  0.226622  0.773378  1
  Cl  Cl2  1  0.226622  0.773378  0.226622  1
  Cl  Cl3  1  0.226622  0.773378  0.773378  1
  Cl  Cl4  1  0.226622  0.226622  0.773378  1
  Cl  Cl5  1  0.773378  0.773378  0.226622  1
  Cs  Cs6  1  0.750000  0.750000  0.750000  1
  Cs  Cs7  1  0.250000  0.250000  0.250000  1
  W  W8  1  0.000000  0.000000  0.000000  1
