# generated using pymatgen
data_NaAl11O17
_symmetry_space_group_name_H-M   'P 1'
_cell_length_a   5.65187028
_cell_length_b   5.65187029
_cell_length_c   22.78231427
_cell_angle_alpha   90.00000000
_cell_angle_beta   90.00000000
_cell_angle_gamma   119.99999996
_symmetry_Int_Tables_number   1
_chemical_formula_structural   NaAl11O17
_chemical_formula_sum   'Na2 Al22 O34'
_cell_volume   630.24998191
_cell_formula_units_Z   2
loop_
 _symmetry_equiv_pos_site_id
 _symmetry_equiv_pos_as_xyz
  1  'x, y, z'
loop_
 _atom_site_type_symbol
 _atom_site_label
 _atom_site_symmetry_multiplicity
 _atom_site_fract_x
 _atom_site_fract_y
 _atom_site_fract_z
 _atom_site_occupancy
  O  O0  1  0.157328  0.842672  0.049770  1
  O  O1  1  0.314656  0.157328  0.549770  1
  O  O2  1  0.842672  0.685344  0.549770  1
  O  O3  1  0.157328  0.314656  0.049770  1
  O  O4  1  0.685344  0.842672  0.049770  1
  O  O5  1  0.314656  0.157328  0.950230  1
  O  O6  1  0.842672  0.685344  0.950230  1
  O  O7  1  0.842672  0.157328  0.549770  1
  O  O8  1  0.842672  0.157328  0.950230  1
  O  O9  1  0.157328  0.842672  0.450230  1
  O  O10  1  0.685344  0.842672  0.450230  1
  O  O11  1  0.157328  0.314656  0.450230  1
  O  O12  1  0.666667  0.333333  0.055596  1
  O  O13  1  0.333333  0.666667  0.555596  1
  O  O14  1  0.333333  0.666667  0.944404  1
  O  O15  1  0.666667  0.333333  0.444404  1
  O  O16  1  0.000000  0.000000  0.141380  1
  O  O17  1  0.000000  0.000000  0.641381  1
  O  O18  1  0.000000  0.000000  0.858619  1
  O  O19  1  0.000000  0.000000  0.358619  1
  O  O20  1  0.503354  0.496646  0.146210  1
  O  O21  1  0.006708  0.503354  0.646210  1
  O  O22  1  0.496646  0.993292  0.646210  1
  O  O23  1  0.503354  0.006708  0.146210  1
  O  O24  1  0.993292  0.496646  0.146210  1
  O  O25  1  0.006708  0.503354  0.853790  1
  O  O26  1  0.496646  0.993292  0.853790  1
  O  O27  1  0.496646  0.503354  0.646210  1
  O  O28  1  0.496646  0.503354  0.853790  1
  O  O29  1  0.503354  0.496646  0.353790  1
  O  O30  1  0.993292  0.496646  0.353790  1
  O  O31  1  0.503354  0.006708  0.353790  1
  O  O32  1  0.333333  0.666667  0.250000  1
  O  O33  1  0.666667  0.333333  0.750000  1
  Na  Na34  1  0.666667  0.333333  0.250000  1
  Na  Na35  1  0.333333  0.666667  0.750000  1
  Al  Al36  1  0.000000  0.000000  0.000000  1
  Al  Al37  1  0.000000  0.000000  0.500000  1
  Al  Al38  1  0.333333  0.666667  0.024680  1
  Al  Al39  1  0.666667  0.333333  0.524680  1
  Al  Al40  1  0.666667  0.333333  0.975320  1
  Al  Al41  1  0.333333  0.666667  0.475320  1
  Al  Al42  1  0.832484  0.167516  0.106930  1
  Al  Al43  1  0.664969  0.832484  0.606930  1
  Al  Al44  1  0.167516  0.335031  0.606930  1
  Al  Al45  1  0.832484  0.664969  0.106930  1
  Al  Al46  1  0.335031  0.167516  0.106930  1
  Al  Al47  1  0.664969  0.832484  0.893070  1
  Al  Al48  1  0.167516  0.335031  0.893070  1
  Al  Al49  1  0.167516  0.832484  0.606930  1
  Al  Al50  1  0.167516  0.832484  0.893070  1
  Al  Al51  1  0.832484  0.167516  0.393070  1
  Al  Al52  1  0.335031  0.167516  0.393070  1
  Al  Al53  1  0.832484  0.664969  0.393070  1
  Al  Al54  1  0.333333  0.666667  0.175514  1
  Al  Al55  1  0.666667  0.333333  0.675514  1
  Al  Al56  1  0.666667  0.333333  0.824486  1
  Al  Al57  1  0.333333  0.666667  0.324486  1
