# generated using pymatgen
data_Ca3Zn
_symmetry_space_group_name_H-M   'P 1'
_cell_length_a   4.13515031
_cell_length_b   6.91263163
_cell_length_c   10.08088952
_cell_angle_alpha   90.00000000
_cell_angle_beta   90.00000000
_cell_angle_gamma   107.40361612
_symmetry_Int_Tables_number   1
_chemical_formula_structural   Ca3Zn
_chemical_formula_sum   'Ca6 Zn2'
_cell_volume   274.96837446
_cell_formula_units_Z   2
loop_
 _symmetry_equiv_pos_site_id
 _symmetry_equiv_pos_as_xyz
  1  'x, y, z'
loop_
 _atom_site_type_symbol
 _atom_site_label
 _atom_site_symmetry_multiplicity
 _atom_site_fract_x
 _atom_site_fract_y
 _atom_site_fract_z
 _atom_site_occupancy
  Ca  Ca0  1  0.430465  0.860929  0.750000  1
  Ca  Ca1  1  0.569535  0.139071  0.250000  1
  Ca  Ca2  1  0.143198  0.286396  0.938563  1
  Ca  Ca3  1  0.856802  0.713604  0.061437  1
  Ca  Ca4  1  0.856802  0.713604  0.438563  1
  Ca  Ca5  1  0.143198  0.286396  0.561437  1
  Zn  Zn6  1  0.753589  0.507178  0.750000  1
  Zn  Zn7  1  0.246411  0.492822  0.250000  1
