# generated using pymatgen
data_Tl(CoSe)2
_symmetry_space_group_name_H-M   'P 1'
_cell_length_a   3.86461940
_cell_length_b   3.86461940
_cell_length_c   7.33830339
_cell_angle_alpha   105.26705085
_cell_angle_beta   105.26705083
_cell_angle_gamma   89.99999997
_symmetry_Int_Tables_number   1
_chemical_formula_structural   Tl(CoSe)2
_chemical_formula_sum   'Tl1 Co2 Se2'
_cell_volume   101.71690456
_cell_formula_units_Z   1
loop_
 _symmetry_equiv_pos_site_id
 _symmetry_equiv_pos_as_xyz
  1  'x, y, z'
loop_
 _atom_site_type_symbol
 _atom_site_label
 _atom_site_symmetry_multiplicity
 _atom_site_fract_x
 _atom_site_fract_y
 _atom_site_fract_z
 _atom_site_occupancy
  Co  Co0  1  0.250000  0.750000  0.500000  1
  Co  Co1  1  0.750000  0.250000  0.500000  1
  Se  Se2  1  0.652908  0.652908  0.305816  1
  Se  Se3  1  0.347092  0.347092  0.694184  1
  Tl  Tl4  1  0.000000  0.000000  0.000000  1
