# generated using pymatgen
data_Nb5Ga3
_symmetry_space_group_name_H-M   'P 1'
_cell_length_a   5.10362908
_cell_length_b   7.76436936
_cell_length_c   7.76436905
_cell_angle_alpha   83.79907313
_cell_angle_beta   70.81271768
_cell_angle_gamma   70.81271728
_symmetry_Int_Tables_number   1
_chemical_formula_structural   Nb5Ga3
_chemical_formula_sum   'Nb10 Ga6'
_cell_volume   274.44087648
_cell_formula_units_Z   2
loop_
 _symmetry_equiv_pos_site_id
 _symmetry_equiv_pos_as_xyz
  1  'x, y, z'
loop_
 _atom_site_type_symbol
 _atom_site_label
 _atom_site_symmetry_multiplicity
 _atom_site_fract_x
 _atom_site_fract_y
 _atom_site_fract_z
 _atom_site_occupancy
  Nb  Nb0  1  0.575465  0.702999  0.146071  1
  Nb  Nb1  1  0.250000  0.500000  0.500000  1
  Nb  Nb2  1  0.075465  0.146071  0.702999  1
  Nb  Nb3  1  0.924535  0.853929  0.297001  1
  Nb  Nb4  1  0.750000  0.500000  0.500000  1
  Nb  Nb5  1  0.721536  0.853929  0.702999  1
  Nb  Nb6  1  0.424535  0.297001  0.853929  1
  Nb  Nb7  1  0.778464  0.297001  0.146071  1
  Nb  Nb8  1  0.278464  0.146071  0.297001  1
  Nb  Nb9  1  0.221536  0.702999  0.853929  1
  Ga  Ga10  1  0.165733  0.500000  0.168533  1
  Ga  Ga11  1  0.250000  0.000000  0.000000  1
  Ga  Ga12  1  0.665733  0.168533  0.500000  1
  Ga  Ga13  1  0.834267  0.500000  0.831467  1
  Ga  Ga14  1  0.750000  0.000000  0.000000  1
  Ga  Ga15  1  0.334267  0.831467  0.500000  1
