# generated using pymatgen
data_CrCuO2
_symmetry_space_group_name_H-M   'P 1'
_cell_length_a   3.04800232
_cell_length_b   3.04800250
_cell_length_c   11.59521961
_cell_angle_alpha   89.98109458
_cell_angle_beta   97.53941143
_cell_angle_gamma   60.02633758
_symmetry_Int_Tables_number   1
_chemical_formula_structural   CrCuO2
_chemical_formula_sum   'Cr2 Cu2 O4'
_cell_volume   92.23648932
_cell_formula_units_Z   2
loop_
 _symmetry_equiv_pos_site_id
 _symmetry_equiv_pos_as_xyz
  1  'x, y, z'
loop_
 _atom_site_type_symbol
 _atom_site_label
 _atom_site_symmetry_multiplicity
 _atom_site_fract_x
 _atom_site_fract_y
 _atom_site_fract_z
 _atom_site_occupancy
  Cr  Cr0  1  0.499985  0.749997  0.749988  1
  Cr  Cr1  1  0.499996  0.250000  0.249996  1
  Cu  Cu2  1  -0.000005  0.000005  -0.000010  1
  Cu  Cu3  1  0.000011  0.500000  0.500011  1
  O  O4  1  0.892171  0.553874  0.338298  1
  O  O5  1  0.892160  0.053880  0.838281  1
  O  O6  1  0.107838  0.946124  0.161714  1
  O  O7  1  0.107842  0.446123  0.661719  1
