# generated using pymatgen
data_Y4Al2O9
_symmetry_space_group_name_H-M   'P 1'
_cell_length_a   7.44156979
_cell_length_b   10.56588031
_cell_length_c   11.25380957
_cell_angle_alpha   90.00000000
_cell_angle_beta   108.53720885
_cell_angle_gamma   90.00000000
_symmetry_Int_Tables_number   1
_chemical_formula_structural   Y4Al2O9
_chemical_formula_sum   'Y16 Al8 O36'
_cell_volume   838.94196893
_cell_formula_units_Z   4
loop_
 _symmetry_equiv_pos_site_id
 _symmetry_equiv_pos_as_xyz
  1  'x, y, z'
loop_
 _atom_site_type_symbol
 _atom_site_label
 _atom_site_symmetry_multiplicity
 _atom_site_fract_x
 _atom_site_fract_y
 _atom_site_fract_z
 _atom_site_occupancy
  Y  Y0  1  0.837935  0.378152  0.915979  1
  Y  Y1  1  0.837935  0.121848  0.415979  1
  Y  Y2  1  0.661027  0.626619  0.062177  1
  Y  Y3  1  0.162066  0.621848  0.084021  1
  Y  Y4  1  0.162066  0.878152  0.584021  1
  Y  Y5  1  0.476318  0.609077  0.714788  1
  Y  Y6  1  0.338973  0.126619  0.437823  1
  Y  Y7  1  0.338973  0.373381  0.937823  1
  Y  Y8  1  0.523682  0.390923  0.285212  1
  Y  Y9  1  0.022797  0.404616  0.305685  1
  Y  Y10  1  0.523682  0.109077  0.785212  1
  Y  Y11  1  0.476318  0.890923  0.214788  1
  Y  Y12  1  0.661027  0.873381  0.562177  1
  Y  Y13  1  0.977203  0.904616  0.194315  1
  Y  Y14  1  0.022797  0.095384  0.805685  1
  Y  Y15  1  0.977203  0.595384  0.694315  1
  Al  Al16  1  0.653948  0.322183  0.614270  1
  Al  Al17  1  0.346052  0.822183  0.885730  1
  Al  Al18  1  0.653948  0.177817  0.114270  1
  Al  Al19  1  0.782697  0.680081  0.372241  1
  Al  Al20  1  0.346052  0.677817  0.385730  1
  Al  Al21  1  0.782697  0.819919  0.872241  1
  Al  Al22  1  0.217303  0.180081  0.127759  1
  Al  Al23  1  0.217303  0.319919  0.627759  1
  O  O24  1  0.230813  0.238519  0.768579  1
  O  O25  1  0.922470  0.494281  0.106549  1
  O  O26  1  0.433188  0.259838  0.615853  1
  O  O27  1  0.788055  0.982485  0.845650  1
  O  O28  1  0.433188  0.240161  0.115852  1
  O  O29  1  0.696270  0.018712  0.161734  1
  O  O30  1  0.077530  0.505719  0.893451  1
  O  O31  1  0.077530  0.994281  0.393451  1
  O  O32  1  0.564334  0.491675  0.892394  1
  O  O33  1  0.788055  0.517515  0.345650  1
  O  O34  1  0.435666  0.508325  0.107606  1
  O  O35  1  0.073408  0.266266  0.480670  1
  O  O36  1  0.769187  0.761481  0.231421  1
  O  O37  1  0.564334  0.008325  0.392394  1
  O  O38  1  0.230813  0.261481  0.268579  1
  O  O39  1  0.638391  0.270557  0.462401  1
  O  O40  1  0.769187  0.738519  0.731421  1
  O  O41  1  0.566812  0.759838  0.884147  1
  O  O42  1  0.303730  0.981288  0.838266  1
  O  O43  1  0.211945  0.482485  0.654350  1
  O  O44  1  0.638391  0.229443  0.962401  1
  O  O45  1  0.435666  0.991675  0.607606  1
  O  O46  1  0.073408  0.233734  0.980670  1
  O  O47  1  0.926592  0.766266  0.019330  1
  O  O48  1  0.566812  0.740162  0.384147  1
  O  O49  1  0.926592  0.733734  0.519330  1
  O  O50  1  0.361609  0.770557  0.037599  1
  O  O51  1  0.789030  0.263652  0.247423  1
  O  O52  1  0.696270  0.481288  0.661734  1
  O  O53  1  0.303730  0.518712  0.338266  1
  O  O54  1  0.210970  0.736348  0.752577  1
  O  O55  1  0.922470  0.005719  0.606549  1
  O  O56  1  0.210970  0.763652  0.252577  1
  O  O57  1  0.789030  0.236348  0.747423  1
  O  O58  1  0.361609  0.729443  0.537599  1
  O  O59  1  0.211945  0.017515  0.154350  1
