# generated using pymatgen
data_Zr2Al4C5
_symmetry_space_group_name_H-M   'P 1'
_cell_length_a   13.82637308
_cell_length_b   13.82637313
_cell_length_c   13.82637339
_cell_angle_alpha   13.97382095
_cell_angle_beta   13.97382018
_cell_angle_gamma   13.97382046
_symmetry_Int_Tables_number   1
_chemical_formula_structural   Zr2Al4C5
_chemical_formula_sum   'Zr2 Al4 C5'
_cell_volume   134.14044760
_cell_formula_units_Z   1
loop_
 _symmetry_equiv_pos_site_id
 _symmetry_equiv_pos_as_xyz
  1  'x, y, z'
loop_
 _atom_site_type_symbol
 _atom_site_label
 _atom_site_symmetry_multiplicity
 _atom_site_fract_x
 _atom_site_fract_y
 _atom_site_fract_z
 _atom_site_occupancy
  Zr  Zr0  1  0.897253  0.897253  0.897253  1
  Zr  Zr1  1  0.629862  0.629862  0.629862  1
  Al  Al2  1  0.174687  0.174687  0.174687  1
  Al  Al3  1  0.074258  0.074258  0.074258  1
  Al  Al4  1  0.452902  0.452902  0.452902  1
  Al  Al5  1  0.352424  0.352424  0.352424  1
  C  C6  1  0.399815  0.399815  0.399815  1
  C  C7  1  0.127287  0.127287  0.127287  1
  C  C8  1  0.529859  0.529859  0.529859  1
  C  C9  1  0.997204  0.997204  0.997204  1
  C  C10  1  0.263551  0.263551  0.263551  1
