# generated using pymatgen
data_Bi2Pb2Se5
_symmetry_space_group_name_H-M   'P 1'
_cell_length_a   4.27890199
_cell_length_b   4.27890180
_cell_length_c   16.83909144
_cell_angle_alpha   90.00000000
_cell_angle_beta   90.00000000
_cell_angle_gamma   120.00000137
_symmetry_Int_Tables_number   1
_chemical_formula_structural   Bi2Pb2Se5
_chemical_formula_sum   'Bi2 Pb2 Se5'
_cell_volume   267.00164664
_cell_formula_units_Z   1
loop_
 _symmetry_equiv_pos_site_id
 _symmetry_equiv_pos_as_xyz
  1  'x, y, z'
loop_
 _atom_site_type_symbol
 _atom_site_label
 _atom_site_symmetry_multiplicity
 _atom_site_fract_x
 _atom_site_fract_y
 _atom_site_fract_z
 _atom_site_occupancy
  Bi  Bi0  1  0.000000  0.000000  0.663166  1
  Bi  Bi1  1  0.000000  0.000000  0.336834  1
  Pb  Pb2  1  0.333333  0.666667  0.111497  1
  Pb  Pb3  1  0.666667  0.333333  0.888503  1
  Se  Se4  1  0.666667  0.333333  0.574902  1
  Se  Se5  1  0.333333  0.666667  0.777488  1
  Se  Se6  1  0.666667  0.333333  0.222512  1
  Se  Se7  1  0.000000  0.000000  0.000000  1
  Se  Se8  1  0.333333  0.666667  0.425098  1
