# generated using pymatgen
data_MgSiO3
_symmetry_space_group_name_H-M   'P 1'
_cell_length_a   5.34395446
_cell_length_b   5.34395445
_cell_length_c   5.34395445
_cell_angle_alpha   53.18873090
_cell_angle_beta   53.18873096
_cell_angle_gamma   53.18873092
_symmetry_Int_Tables_number   1
_chemical_formula_structural   MgSiO3
_chemical_formula_sum   'Mg2 Si2 O6'
_cell_volume   90.69557125
_cell_formula_units_Z   2
loop_
 _symmetry_equiv_pos_site_id
 _symmetry_equiv_pos_as_xyz
  1  'x, y, z'
loop_
 _atom_site_type_symbol
 _atom_site_label
 _atom_site_symmetry_multiplicity
 _atom_site_fract_x
 _atom_site_fract_y
 _atom_site_fract_z
 _atom_site_occupancy
  O  O0  1  0.044924  0.796579  0.437898  1
  O  O1  1  0.796579  0.437898  0.044924  1
  O  O2  1  0.437898  0.044924  0.796579  1
  O  O3  1  0.955076  0.203421  0.562102  1
  O  O4  1  0.562102  0.955076  0.203421  1
  O  O5  1  0.203421  0.562102  0.955076  1
  Mg  Mg6  1  0.360422  0.360422  0.360422  1
  Mg  Mg7  1  0.639578  0.639578  0.639578  1
  Si  Si8  1  0.157903  0.157903  0.157903  1
  Si  Si9  1  0.842097  0.842097  0.842097  1
