# generated using pymatgen
data_Ba2CoMoO6
_symmetry_space_group_name_H-M   'P 1'
_cell_length_a   5.86770490
_cell_length_b   5.86961230
_cell_length_c   5.62558390
_cell_angle_alpha   61.36081326
_cell_angle_beta   61.34823801
_cell_angle_gamma   57.28121288
_symmetry_Int_Tables_number   1
_chemical_formula_structural   Ba2CoMoO6
_chemical_formula_sum   'Ba2 Co1 Mo1 O6'
_cell_volume   136.54349357
_cell_formula_units_Z   1
loop_
 _symmetry_equiv_pos_site_id
 _symmetry_equiv_pos_as_xyz
  1  'x, y, z'
loop_
 _atom_site_type_symbol
 _atom_site_label
 _atom_site_symmetry_multiplicity
 _atom_site_fract_x
 _atom_site_fract_y
 _atom_site_fract_z
 _atom_site_occupancy
  Ba  Ba0  1  0.749942  0.750069  0.749975  1
  Ba  Ba1  1  0.250058  0.249931  0.250025  1
  Co  Co2  1  0.000000  0.000000  0.000000  1
  Mo  Mo3  1  0.500000  0.500000  0.500000  1
  O  O4  1  0.746919  0.253048  0.746576  1
  O  O5  1  0.746520  0.253419  0.253098  1
  O  O6  1  0.273736  0.273750  0.726262  1
  O  O7  1  0.253480  0.746581  0.746902  1
  O  O8  1  0.726264  0.726250  0.273738  1
  O  O9  1  0.253081  0.746952  0.253424  1
