# generated using pymatgen
data_NbFe2
_symmetry_space_group_name_H-M   'P 1'
_cell_length_a   4.80780557
_cell_length_b   4.80780557
_cell_length_c   7.85371982
_cell_angle_alpha   90.00000000
_cell_angle_beta   90.00000000
_cell_angle_gamma   120.06425072
_symmetry_Int_Tables_number   1
_chemical_formula_structural   NbFe2
_chemical_formula_sum   'Nb4 Fe8'
_cell_volume   157.11523082
_cell_formula_units_Z   4
loop_
 _symmetry_equiv_pos_site_id
 _symmetry_equiv_pos_as_xyz
  1  'x, y, z'
loop_
 _atom_site_type_symbol
 _atom_site_label
 _atom_site_symmetry_multiplicity
 _atom_site_fract_x
 _atom_site_fract_y
 _atom_site_fract_z
 _atom_site_occupancy
  Nb  Nb0  1  0.666856  0.333144  0.563749  1
  Nb  Nb1  1  0.333144  0.666856  0.436251  1
  Nb  Nb2  1  0.333144  0.666856  0.063749  1
  Nb  Nb3  1  0.666856  0.333144  0.936251  1
  Fe  Fe4  1  -0.000000  -0.000000  0.500000  1
  Fe  Fe5  1  -0.000000  -0.000000  -0.000000  1
  Fe  Fe6  1  0.168824  0.337367  0.750000  1
  Fe  Fe7  1  0.168345  0.831655  0.750000  1
  Fe  Fe8  1  0.662633  0.831176  0.750000  1
  Fe  Fe9  1  0.831176  0.662633  0.250000  1
  Fe  Fe10  1  0.831655  0.168345  0.250000  1
  Fe  Fe11  1  0.337367  0.168824  0.250000  1
