# generated using pymatgen
data_NaTaN2
_symmetry_space_group_name_H-M   'P 1'
_cell_length_a   5.98623421
_cell_length_b   5.98623420
_cell_length_c   5.98623420
_cell_angle_alpha   30.41215817
_cell_angle_beta   30.41215817
_cell_angle_gamma   30.41215822
_symmetry_Int_Tables_number   1
_chemical_formula_structural   NaTaN2
_chemical_formula_sum   'Na1 Ta1 N2'
_cell_volume   48.72233270
_cell_formula_units_Z   1
loop_
 _symmetry_equiv_pos_site_id
 _symmetry_equiv_pos_as_xyz
  1  'x, y, z'
loop_
 _atom_site_type_symbol
 _atom_site_label
 _atom_site_symmetry_multiplicity
 _atom_site_fract_x
 _atom_site_fract_y
 _atom_site_fract_z
 _atom_site_occupancy
  N  N0  1  0.730840  0.730840  0.730840  1
  N  N1  1  0.269160  0.269160  0.269160  1
  Na  Na2  1  0.500000  0.500000  0.500000  1
  Ta  Ta3  1  0.000000  0.000000  0.000000  1
