# generated using pymatgen
data_SiO2
_symmetry_space_group_name_H-M   'P 1'
_cell_length_a   4.98529300
_cell_length_b   4.98531282
_cell_length_c   5.47852971
_cell_angle_alpha   90.00144918
_cell_angle_beta   89.99868414
_cell_angle_gamma   119.99325631
_symmetry_Int_Tables_number   1
_chemical_formula_structural   SiO2
_chemical_formula_sum   'Si3 O6'
_cell_volume   117.92537435
_cell_formula_units_Z   3
loop_
 _symmetry_equiv_pos_site_id
 _symmetry_equiv_pos_as_xyz
  1  'x, y, z'
loop_
 _atom_site_type_symbol
 _atom_site_label
 _atom_site_symmetry_multiplicity
 _atom_site_fract_x
 _atom_site_fract_y
 _atom_site_fract_z
 _atom_site_occupancy
  Si  Si0  1  0.000006  0.471133  0.333317  1
  O  O1  1  0.148523  0.734489  0.546133  1
  Si  Si2  1  0.528859  0.528858  1.000001  1
  O  O3  1  0.585956  0.851482  0.879457  1
  O  O4  1  0.265505  0.414051  0.212828  1
  O  O5  1  0.414050  0.265502  0.787172  1
  Si  Si6  1  0.471131  0.000006  0.666682  1
  O  O7  1  0.851482  0.585955  0.120541  1
  O  O8  1  0.734488  0.148522  0.453868  1
