# generated using pymatgen
data_V2H
_symmetry_space_group_name_H-M   'P 1'
_cell_length_a   2.66660231
_cell_length_b   2.66660231
_cell_length_c   4.43460385
_cell_angle_alpha   83.95428733
_cell_angle_beta   96.04571267
_cell_angle_gamma   112.70606616
_symmetry_Int_Tables_number   1
_chemical_formula_structural   V2H
_chemical_formula_sum   'V2 H1'
_cell_volume   28.85575640
_cell_formula_units_Z   1
loop_
 _symmetry_equiv_pos_site_id
 _symmetry_equiv_pos_as_xyz
  1  'x, y, z'
loop_
 _atom_site_type_symbol
 _atom_site_label
 _atom_site_symmetry_multiplicity
 _atom_site_fract_x
 _atom_site_fract_y
 _atom_site_fract_z
 _atom_site_occupancy
  V  V0  1  0.279663  0.720337  0.220504  1
  V  V1  1  0.740109  0.259891  0.757496  1
  H  H2  1  0.010798  0.989202  0.489750  1
