# generated using pymatgen
data_Na4PtO4
_symmetry_space_group_name_H-M   'P 1'
_cell_length_a   3.30106276
_cell_length_b   5.71311895
_cell_length_c   7.15530901
_cell_angle_alpha   75.51439505
_cell_angle_beta   103.56709284
_cell_angle_gamma   106.59636889
_symmetry_Int_Tables_number   1
_chemical_formula_structural   Na4PtO4
_chemical_formula_sum   'Na4 Pt1 O4'
_cell_volume   123.26129309
_cell_formula_units_Z   1
loop_
 _symmetry_equiv_pos_site_id
 _symmetry_equiv_pos_as_xyz
  1  'x, y, z'
loop_
 _atom_site_type_symbol
 _atom_site_label
 _atom_site_symmetry_multiplicity
 _atom_site_fract_x
 _atom_site_fract_y
 _atom_site_fract_z
 _atom_site_occupancy
  Na  Na0  1  0.989211  0.011863  0.975612  1
  Na  Na1  1  0.834199  0.465107  0.194975  1
  Na  Na2  1  0.397028  0.185576  0.625108  1
  Na  Na3  1  0.559662  0.733151  0.403913  1
  Pt  Pt4  1  0.201097  0.598513  0.799602  1
  O  O5  1  0.398260  0.723746  0.068423  1
  O  O6  1  0.995936  0.474591  0.529944  1
  O  O7  1  0.769082  0.832089  0.703771  1
  O  O8  1  0.636221  0.366204  0.895343  1
