# generated using pymatgen
data_TiB
_symmetry_space_group_name_H-M   'P 1'
_cell_length_a   3.05432170
_cell_length_b   4.56586206
_cell_length_c   6.11884457
_cell_angle_alpha   90.00000000
_cell_angle_beta   90.00000000
_cell_angle_gamma   90.00000000
_symmetry_Int_Tables_number   1
_chemical_formula_structural   TiB
_chemical_formula_sum   'Ti4 B4'
_cell_volume   85.33102962
_cell_formula_units_Z   4
loop_
 _symmetry_equiv_pos_site_id
 _symmetry_equiv_pos_as_xyz
  1  'x, y, z'
loop_
 _atom_site_type_symbol
 _atom_site_label
 _atom_site_symmetry_multiplicity
 _atom_site_fract_x
 _atom_site_fract_y
 _atom_site_fract_z
 _atom_site_occupancy
  B  B0  1  0.250000  0.900837  0.529698  1
  B  B1  1  0.750000  0.099163  0.470302  1
  B  B2  1  0.750000  0.400837  0.970302  1
  B  B3  1  0.250000  0.599163  0.029698  1
  Ti  Ti4  1  0.250000  0.378265  0.677586  1
  Ti  Ti5  1  0.750000  0.621735  0.322414  1
  Ti  Ti6  1  0.750000  0.878265  0.822414  1
  Ti  Ti7  1  0.250000  0.121735  0.177586  1
