# generated using pymatgen
data_V2NiSe4
_symmetry_space_group_name_H-M   'P 1'
_cell_length_a   3.38607391
_cell_length_b   6.18758298
_cell_length_c   6.69868142
_cell_angle_alpha   115.94508279
_cell_angle_beta   104.63981878
_cell_angle_gamma   89.99999998
_symmetry_Int_Tables_number   1
_chemical_formula_structural   V2NiSe4
_chemical_formula_sum   'V2 Ni1 Se4'
_cell_volume   121.11544340
_cell_formula_units_Z   1
loop_
 _symmetry_equiv_pos_site_id
 _symmetry_equiv_pos_as_xyz
  1  'x, y, z'
loop_
 _atom_site_type_symbol
 _atom_site_label
 _atom_site_symmetry_multiplicity
 _atom_site_fract_x
 _atom_site_fract_y
 _atom_site_fract_z
 _atom_site_occupancy
  V  V0  1  0.745460  0.687322  0.490920  1
  V  V1  1  0.254540  0.312678  0.509080  1
  Ni  Ni2  1  0.000000  0.000000  0.000000  1
  Se  Se3  1  0.639350  0.977570  0.278699  1
  Se  Se4  1  0.104462  0.445543  0.208924  1
  Se  Se5  1  0.360650  0.022430  0.721301  1
  Se  Se6  1  0.895538  0.554457  0.791076  1
