# generated using pymatgen
data_CaSi2
_symmetry_space_group_name_H-M   'P 1'
_cell_length_a   4.27679154
_cell_length_b   4.27679154
_cell_length_c   7.43215200
_cell_angle_alpha   106.72164171
_cell_angle_beta   106.72164174
_cell_angle_gamma   90.00000007
_symmetry_Int_Tables_number   1
_chemical_formula_structural   CaSi2
_chemical_formula_sum   'Ca2 Si4'
_cell_volume   124.17842979
_cell_formula_units_Z   2
loop_
 _symmetry_equiv_pos_site_id
 _symmetry_equiv_pos_as_xyz
  1  'x, y, z'
loop_
 _atom_site_type_symbol
 _atom_site_label
 _atom_site_symmetry_multiplicity
 _atom_site_fract_x
 _atom_site_fract_y
 _atom_site_fract_z
 _atom_site_occupancy
  Si  Si0  1  0.209796  0.459796  0.919593  1
  Si  Si1  1  0.959796  0.709796  0.419593  1
  Si  Si2  1  0.040204  0.290204  0.580407  1
  Si  Si3  1  0.790204  0.540204  0.080407  1
  Ca  Ca4  1  0.625000  0.875000  0.750000  1
  Ca  Ca5  1  0.375000  0.125000  0.250000  1
