# generated using pymatgen
data_KCoO2
_symmetry_space_group_name_H-M   'P 1'
_cell_length_a   5.57875164
_cell_length_b   5.57880973
_cell_length_c   5.57874895
_cell_angle_alpha   93.20150921
_cell_angle_beta   118.16933016
_cell_angle_gamma   118.16984601
_symmetry_Int_Tables_number   1
_chemical_formula_structural   KCoO2
_chemical_formula_sum   'K2 Co2 O4'
_cell_volume   125.95549410
_cell_formula_units_Z   2
loop_
 _symmetry_equiv_pos_site_id
 _symmetry_equiv_pos_as_xyz
  1  'x, y, z'
loop_
 _atom_site_type_symbol
 _atom_site_label
 _atom_site_symmetry_multiplicity
 _atom_site_fract_x
 _atom_site_fract_y
 _atom_site_fract_z
 _atom_site_occupancy
  O  O0  1  0.884225  0.883213  0.256189  1
  Co  Co1  1  0.500002  0.749999  0.250000  1
  O  O2  1  0.115770  0.371963  0.998988  1
  O  O3  1  0.372976  0.001008  0.116791  1
  K  K4  1  0.500000  0.249999  0.750005  1
  O  O5  1  0.627023  0.743809  0.628036  1
  K  K6  1  1.000000  0.500006  0.499990  1
  Co  Co7  1  0.000004  0.000003  0.000001  1
