# generated using pymatgen
data_Fe2SiO4
_symmetry_space_group_name_H-M   'P 1'
_cell_length_a   5.89581136
_cell_length_b   5.89581135
_cell_length_c   5.89581135
_cell_angle_alpha   59.99999997
_cell_angle_beta   59.99999998
_cell_angle_gamma   59.99999994
_symmetry_Int_Tables_number   1
_chemical_formula_structural   Fe2SiO4
_chemical_formula_sum   'Fe4 Si2 O8'
_cell_volume   144.91580016
_cell_formula_units_Z   2
loop_
 _symmetry_equiv_pos_site_id
 _symmetry_equiv_pos_as_xyz
  1  'x, y, z'
loop_
 _atom_site_type_symbol
 _atom_site_label
 _atom_site_symmetry_multiplicity
 _atom_site_fract_x
 _atom_site_fract_y
 _atom_site_fract_z
 _atom_site_occupancy
  O  O0  1  0.759237  0.759237  0.759237  1
  O  O1  1  0.240763  0.240763  0.777710  1
  O  O2  1  0.240763  0.777710  0.240763  1
  O  O3  1  0.777710  0.240763  0.240763  1
  O  O4  1  0.759237  0.222290  0.759237  1
  O  O5  1  0.222290  0.759237  0.759237  1
  O  O6  1  0.240763  0.240763  0.240763  1
  O  O7  1  0.759237  0.759237  0.222290  1
  Si  Si8  1  0.875000  0.875000  0.875000  1
  Si  Si9  1  0.125000  0.125000  0.125000  1
  Fe  Fe10  1  0.500000  0.500000  0.000000  1
  Fe  Fe11  1  0.500000  0.500000  0.500000  1
  Fe  Fe12  1  0.000000  0.500000  0.500000  1
  Fe  Fe13  1  0.500000  0.000000  0.500000  1
