# generated using pymatgen
data_Mn5SiC
_symmetry_space_group_name_H-M   'P 1'
_cell_length_a   6.34678847
_cell_length_b   6.34678846
_cell_length_c   7.49071894
_cell_angle_alpha   90.00000000
_cell_angle_beta   90.00000000
_cell_angle_gamma   103.92230416
_symmetry_Int_Tables_number   1
_chemical_formula_structural   Mn5SiC
_chemical_formula_sum   'Mn20 Si4 C4'
_cell_volume   292.87485027
_cell_formula_units_Z   4
loop_
 _symmetry_equiv_pos_site_id
 _symmetry_equiv_pos_as_xyz
  1  'x, y, z'
loop_
 _atom_site_type_symbol
 _atom_site_label
 _atom_site_symmetry_multiplicity
 _atom_site_fract_x
 _atom_site_fract_y
 _atom_site_fract_z
 _atom_site_occupancy
  C  C0  1  0.806829  0.806829  0.403139  1
  C  C1  1  0.193171  0.193171  0.903139  1
  C  C2  1  0.806717  0.806717  0.974182  1
  C  C3  1  0.193283  0.193283  0.474182  1
  Si  Si4  1  0.823960  0.333967  0.188684  1
  Si  Si5  1  0.176040  0.666033  0.688684  1
  Si  Si6  1  0.666033  0.176040  0.688684  1
  Si  Si7  1  0.333967  0.823960  0.188684  1
  Mn  Mn8  1  0.126244  0.873823  0.438680  1
  Mn  Mn9  1  0.873756  0.126177  0.938680  1
  Mn  Mn10  1  0.126177  0.873756  0.938680  1
  Mn  Mn11  1  0.873823  0.126244  0.438680  1
  Mn  Mn12  1  0.299605  0.063560  0.688671  1
  Mn  Mn13  1  0.700395  0.936440  0.188671  1
  Mn  Mn14  1  0.936440  0.700395  0.188671  1
  Mn  Mn15  1  0.063560  0.299605  0.688671  1
  Mn  Mn16  1  0.484227  0.192015  0.002813  1
  Mn  Mn17  1  0.515773  0.807985  0.502813  1
  Mn  Mn18  1  0.807985  0.515773  0.502813  1
  Mn  Mn19  1  0.192015  0.484227  0.002813  1
  Mn  Mn20  1  0.867250  0.867250  0.688677  1
  Mn  Mn21  1  0.132750  0.132750  0.188677  1
  Mn  Mn22  1  0.532195  0.532195  0.188637  1
  Mn  Mn23  1  0.467805  0.467805  0.688637  1
  Mn  Mn24  1  0.192062  0.484292  0.374535  1
  Mn  Mn25  1  0.807938  0.515708  0.874535  1
  Mn  Mn26  1  0.515708  0.807938  0.874535  1
  Mn  Mn27  1  0.484292  0.192062  0.374535  1
