# generated using pymatgen
data_As2Rh
_symmetry_space_group_name_H-M   'P 1'
_cell_length_a   6.14775652
_cell_length_b   6.16293078
_cell_length_c   6.23927708
_cell_angle_alpha   90.00000000
_cell_angle_beta   114.27448320
_cell_angle_gamma   90.00000000
_symmetry_Int_Tables_number   1
_chemical_formula_structural   As2Rh
_chemical_formula_sum   'As8 Rh4'
_cell_volume   215.49444786
_cell_formula_units_Z   4
loop_
 _symmetry_equiv_pos_site_id
 _symmetry_equiv_pos_as_xyz
  1  'x, y, z'
loop_
 _atom_site_type_symbol
 _atom_site_label
 _atom_site_symmetry_multiplicity
 _atom_site_fract_x
 _atom_site_fract_y
 _atom_site_fract_z
 _atom_site_occupancy
  As  As0  1  0.156193  0.871345  0.870298  1
  As  As1  1  0.843807  0.371345  0.629702  1
  As  As2  1  0.843807  0.128655  0.129702  1
  As  As3  1  0.156193  0.628655  0.370298  1
  As  As4  1  0.338537  0.370297  0.182561  1
  As  As5  1  0.661463  0.870297  0.317439  1
  As  As6  1  0.661463  0.629703  0.817439  1
  As  As7  1  0.338537  0.129703  0.682561  1
  Rh  Rh8  1  0.272150  0.499531  0.789388  1
  Rh  Rh9  1  0.727850  0.999531  0.710612  1
  Rh  Rh10  1  0.727850  0.500469  0.210612  1
  Rh  Rh11  1  0.272150  0.000469  0.289388  1
