# generated using pymatgen
data_ZnPPd5
_symmetry_space_group_name_H-M   'P 1'
_cell_length_a   3.93666816
_cell_length_b   3.93666816
_cell_length_c   6.88152955
_cell_angle_alpha   90.00000000
_cell_angle_beta   90.00000000
_cell_angle_gamma   90.00000000
_symmetry_Int_Tables_number   1
_chemical_formula_structural   ZnPPd5
_chemical_formula_sum   'Zn1 P1 Pd5'
_cell_volume   106.64551465
_cell_formula_units_Z   1
loop_
 _symmetry_equiv_pos_site_id
 _symmetry_equiv_pos_as_xyz
  1  'x, y, z'
loop_
 _atom_site_type_symbol
 _atom_site_label
 _atom_site_symmetry_multiplicity
 _atom_site_fract_x
 _atom_site_fract_y
 _atom_site_fract_z
 _atom_site_occupancy
  Zn  Zn0  1  0.500000  0.500000  0.000000  1
  P  P1  1  0.000000  0.000000  0.500000  1
  Pd  Pd2  1  0.000000  0.500000  0.293350  1
  Pd  Pd3  1  0.000000  0.500000  0.706650  1
  Pd  Pd4  1  0.500000  0.000000  0.293350  1
  Pd  Pd5  1  0.500000  0.000000  0.706650  1
  Pd  Pd6  1  0.000000  0.000000  0.000000  1
