# generated using pymatgen
data_BaNa2Mg(PO4)2
_symmetry_space_group_name_H-M   'P 1'
_cell_length_a   5.38037232
_cell_length_b   5.38044619
_cell_length_c   7.11291146
_cell_angle_alpha   90.00000001
_cell_angle_beta   89.99812072
_cell_angle_gamma   120.00045307
_symmetry_Int_Tables_number   1
_chemical_formula_structural   BaNa2Mg(PO4)2
_chemical_formula_sum   'Ba1 Na2 Mg1 P2 O8'
_cell_volume   178.32271747
_cell_formula_units_Z   1
loop_
 _symmetry_equiv_pos_site_id
 _symmetry_equiv_pos_as_xyz
  1  'x, y, z'
loop_
 _atom_site_type_symbol
 _atom_site_label
 _atom_site_symmetry_multiplicity
 _atom_site_fract_x
 _atom_site_fract_y
 _atom_site_fract_z
 _atom_site_occupancy
  Ba  Ba0  1  0.000000  0.000000  0.500000  1
  Na  Na1  1  0.666614  0.333307  0.817902  1
  Na  Na2  1  0.333386  0.666693  0.182098  1
  Mg  Mg3  1  0.000000  0.000000  -0.000000  1
  P  P4  1  0.666651  0.333326  0.255066  1
  P  P5  1  0.333349  0.666674  0.744934  1
  O  O6  1  0.666617  0.333308  0.471945  1
  O  O7  1  0.333383  0.666692  0.528055  1
  O  O8  1  0.176792  0.823230  0.821788  1
  O  O9  1  0.176792  0.353561  0.821788  1
  O  O10  1  0.646460  0.823230  0.821802  1
  O  O11  1  0.823208  0.176769  0.178212  1
  O  O12  1  0.823208  0.646439  0.178212  1
  O  O13  1  0.353540  0.176770  0.178198  1
