# generated using pymatgen
data_HfSiTe
_symmetry_space_group_name_H-M   'P 1'
_cell_length_a   3.66380007
_cell_length_b   3.66380007
_cell_length_c   10.31120924
_cell_angle_alpha   90.00000000
_cell_angle_beta   90.00000000
_cell_angle_gamma   90.00000000
_symmetry_Int_Tables_number   1
_chemical_formula_structural   HfSiTe
_chemical_formula_sum   'Hf2 Si2 Te2'
_cell_volume   138.41180527
_cell_formula_units_Z   2
loop_
 _symmetry_equiv_pos_site_id
 _symmetry_equiv_pos_as_xyz
  1  'x, y, z'
loop_
 _atom_site_type_symbol
 _atom_site_label
 _atom_site_symmetry_multiplicity
 _atom_site_fract_x
 _atom_site_fract_y
 _atom_site_fract_z
 _atom_site_occupancy
  Si  Si0  1  0.750000  0.250000  0.000000  1
  Si  Si1  1  0.250000  0.750000  0.000000  1
  Te  Te2  1  0.250000  0.250000  0.661224  1
  Te  Te3  1  0.750000  0.750000  0.338776  1
  Hf  Hf4  1  0.750000  0.750000  0.796169  1
  Hf  Hf5  1  0.250000  0.250000  0.203831  1
