# generated using pymatgen
data_Li2NiO2
_symmetry_space_group_name_H-M   'P 1'
_cell_length_a   3.12765086
_cell_length_b   3.12765086
_cell_length_c   10.17274704
_cell_angle_alpha   90.00000000
_cell_angle_beta   90.00000000
_cell_angle_gamma   119.99999999
_symmetry_Int_Tables_number   1
_chemical_formula_structural   Li2NiO2
_chemical_formula_sum   'Li4 Ni2 O4'
_cell_volume   86.17978587
_cell_formula_units_Z   2
loop_
 _symmetry_equiv_pos_site_id
 _symmetry_equiv_pos_as_xyz
  1  'x, y, z'
loop_
 _atom_site_type_symbol
 _atom_site_label
 _atom_site_symmetry_multiplicity
 _atom_site_fract_x
 _atom_site_fract_y
 _atom_site_fract_z
 _atom_site_occupancy
  Li  Li0  1  0.666665  0.333332  0.179156  1
  Li  Li1  1  0.333334  0.666667  0.820844  1
  Li  Li2  1  0.333334  0.666667  0.320845  1
  Li  Li3  1  0.666665  0.333332  0.679156  1
  O  O4  1  0.333334  0.666667  0.616969  1
  O  O5  1  0.666665  0.333332  0.883031  1
  O  O6  1  0.333334  0.666667  0.116969  1
  O  O7  1  0.666665  0.333332  0.383031  1
  Ni  Ni8  1  0.000000  0.000000  0.500000  1
  Ni  Ni9  1  0.000000  0.000000  0.000000  1
