# generated using pymatgen
data_Hf2Ga3
_symmetry_space_group_name_H-M   'P 1'
_cell_length_a   5.47049262
_cell_length_b   5.47049262
_cell_length_c   7.38033574
_cell_angle_alpha   100.81566234
_cell_angle_beta   100.81566229
_cell_angle_gamma   119.58253364
_symmetry_Int_Tables_number   1
_chemical_formula_structural   Hf2Ga3
_chemical_formula_sum   'Hf4 Ga6'
_cell_volume   178.21731530
_cell_formula_units_Z   2
loop_
 _symmetry_equiv_pos_site_id
 _symmetry_equiv_pos_as_xyz
  1  'x, y, z'
loop_
 _atom_site_type_symbol
 _atom_site_label
 _atom_site_symmetry_multiplicity
 _atom_site_fract_x
 _atom_site_fract_y
 _atom_site_fract_z
 _atom_site_occupancy
  Ga  Ga0  1  0.628113  0.628113  0.000000  1
  Ga  Ga1  1  0.878113  0.378113  0.500000  1
  Ga  Ga2  1  0.537244  0.175340  0.728295  1
  Ga  Ga3  1  0.447045  0.808950  0.271705  1
  Ga  Ga4  1  0.425340  0.287244  0.228295  1
  Ga  Ga5  1  0.058950  0.197045  0.771705  1
  Hf  Hf6  1  0.134647  0.768181  0.895231  1
  Hf  Hf7  1  0.872950  0.239417  0.104769  1
  Hf  Hf8  1  0.018181  0.884647  0.395231  1
  Hf  Hf9  1  0.489416  0.622950  0.604769  1
