# generated using pymatgen
data_YFe5
_symmetry_space_group_name_H-M   'P 1'
_cell_length_a   5.01954531
_cell_length_b   5.01954530
_cell_length_c   3.94181505
_cell_angle_alpha   90.00000000
_cell_angle_beta   90.00000000
_cell_angle_gamma   119.99999997
_symmetry_Int_Tables_number   1
_chemical_formula_structural   YFe5
_chemical_formula_sum   'Y1 Fe5'
_cell_volume   86.01132387
_cell_formula_units_Z   1
loop_
 _symmetry_equiv_pos_site_id
 _symmetry_equiv_pos_as_xyz
  1  'x, y, z'
loop_
 _atom_site_type_symbol
 _atom_site_label
 _atom_site_symmetry_multiplicity
 _atom_site_fract_x
 _atom_site_fract_y
 _atom_site_fract_z
 _atom_site_occupancy
  Fe  Fe0  1  0.333333  0.666667  0.000000  1
  Fe  Fe1  1  0.666667  0.333333  0.000000  1
  Fe  Fe2  1  0.500000  0.000000  0.500000  1
  Fe  Fe3  1  0.500000  0.500000  0.500000  1
  Fe  Fe4  1  0.000000  0.500000  0.500000  1
  Y  Y5  1  0.000000  0.000000  0.000000  1
