# generated using pymatgen
data_CoP3
_symmetry_space_group_name_H-M   'P 1'
_cell_length_a   6.68657970
_cell_length_b   6.68657971
_cell_length_c   6.68657970
_cell_angle_alpha   109.47122062
_cell_angle_beta   109.47122063
_cell_angle_gamma   109.47122063
_symmetry_Int_Tables_number   1
_chemical_formula_structural   CoP3
_chemical_formula_sum   'Co4 P12'
_cell_volume   230.13898132
_cell_formula_units_Z   4
loop_
 _symmetry_equiv_pos_site_id
 _symmetry_equiv_pos_as_xyz
  1  'x, y, z'
loop_
 _atom_site_type_symbol
 _atom_site_label
 _atom_site_symmetry_multiplicity
 _atom_site_fract_x
 _atom_site_fract_y
 _atom_site_fract_z
 _atom_site_occupancy
  P  P0  1  0.505845  0.853879  0.651966  1
  P  P1  1  0.201913  0.853879  0.348034  1
  P  P2  1  0.798087  0.146121  0.651966  1
  P  P3  1  0.146121  0.348034  0.494155  1
  P  P4  1  0.494155  0.146121  0.348034  1
  P  P5  1  0.146121  0.651966  0.798087  1
  P  P6  1  0.348034  0.201913  0.853879  1
  P  P7  1  0.853879  0.651966  0.505845  1
  P  P8  1  0.651966  0.798087  0.146121  1
  P  P9  1  0.853879  0.348034  0.201913  1
  P  P10  1  0.651966  0.505845  0.853879  1
  P  P11  1  0.348034  0.494155  0.146121  1
  Co  Co12  1  0.500000  0.000000  0.000000  1
  Co  Co13  1  0.000000  0.000000  0.500000  1
  Co  Co14  1  0.000000  0.500000  0.000000  1
  Co  Co15  1  0.500000  0.500000  0.500000  1
