# generated using pymatgen
data_Li2MnO3
_symmetry_space_group_name_H-M   'P 1'
_cell_length_a   5.00387493
_cell_length_b   5.00387494
_cell_length_c   5.09222468
_cell_angle_alpha   99.61017174
_cell_angle_beta   99.61017176
_cell_angle_gamma   119.90704461
_symmetry_Int_Tables_number   1
_chemical_formula_structural   Li2MnO3
_chemical_formula_sum   'Li4 Mn2 O6'
_cell_volume   104.19979471
_cell_formula_units_Z   2
loop_
 _symmetry_equiv_pos_site_id
 _symmetry_equiv_pos_as_xyz
  1  'x, y, z'
loop_
 _atom_site_type_symbol
 _atom_site_label
 _atom_site_symmetry_multiplicity
 _atom_site_fract_x
 _atom_site_fract_y
 _atom_site_fract_z
 _atom_site_occupancy
  Li  Li0  1  0.338869  0.661131  0.500000  1
  Li  Li1  1  0.661131  0.338869  0.500000  1
  Li  Li2  1  0.500000  0.500000  0.000000  1
  Li  Li3  1  0.000000  0.000000  0.500000  1
  O  O4  1  0.067168  0.424495  0.776065  1
  O  O5  1  0.575505  0.932832  0.223935  1
  O  O6  1  0.780905  0.780905  0.772337  1
  O  O7  1  0.219095  0.219095  0.227663  1
  O  O8  1  0.424495  0.067168  0.776065  1
  O  O9  1  0.932832  0.575505  0.223935  1
  Mn  Mn10  1  0.167106  0.832894  0.000000  1
  Mn  Mn11  1  0.832894  0.167106  0.000000  1
