# generated using pymatgen
data_Zr4Al3
_symmetry_space_group_name_H-M   'P 1'
_cell_length_a   5.44854095
_cell_length_b   5.44854095
_cell_length_c   5.41263256
_cell_angle_alpha   90.00000000
_cell_angle_beta   90.00000000
_cell_angle_gamma   120.00000000
_symmetry_Int_Tables_number   1
_chemical_formula_structural   Zr4Al3
_chemical_formula_sum   'Zr4 Al3'
_cell_volume   139.15525642
_cell_formula_units_Z   1
loop_
 _symmetry_equiv_pos_site_id
 _symmetry_equiv_pos_as_xyz
  1  'x, y, z'
loop_
 _atom_site_type_symbol
 _atom_site_label
 _atom_site_symmetry_multiplicity
 _atom_site_fract_x
 _atom_site_fract_y
 _atom_site_fract_z
 _atom_site_occupancy
  Al  Al0  1  0.333331  0.166680  0.000000  1
  Al  Al1  1  0.833349  0.666669  0.000000  1
  Al  Al2  1  0.833320  0.166651  0.000000  1
  Zr  Zr3  1  0.333333  0.666667  0.258604  1
  Zr  Zr4  1  0.333333  0.666667  0.741396  1
  Zr  Zr5  1  0.666667  0.333333  0.500000  1
  Zr  Zr6  1  0.000000  0.000000  0.500000  1
