# generated using pymatgen
data_Al3Fe2Si3
_symmetry_space_group_name_H-M   'P 1'
_cell_length_a   7.11589850
_cell_length_b   8.33685160
_cell_length_c   14.39979651
_cell_angle_alpha   90.00000000
_cell_angle_beta   93.82614122
_cell_angle_gamma   90.00000000
_symmetry_Int_Tables_number   1
_chemical_formula_structural   Al3Fe2Si3
_chemical_formula_sum   'Al24 Fe16 Si24'
_cell_volume   852.35223173
_cell_formula_units_Z   8
loop_
 _symmetry_equiv_pos_site_id
 _symmetry_equiv_pos_as_xyz
  1  'x, y, z'
loop_
 _atom_site_type_symbol
 _atom_site_label
 _atom_site_symmetry_multiplicity
 _atom_site_fract_x
 _atom_site_fract_y
 _atom_site_fract_z
 _atom_site_occupancy
  Al  Al0  1  0.797438  0.877876  0.722889  1
  Al  Al1  1  0.702562  0.377876  0.777111  1
  Al  Al2  1  0.202562  0.122124  0.277111  1
  Al  Al3  1  0.297438  0.622124  0.222889  1
  Al  Al4  1  0.051145  0.376701  0.675225  1
  Al  Al5  1  0.448855  0.876701  0.824775  1
  Al  Al6  1  0.948855  0.623299  0.324775  1
  Al  Al7  1  0.551145  0.123299  0.175225  1
  Al  Al8  1  0.953288  0.886428  0.056069  1
  Al  Al9  1  0.546712  0.386428  0.443931  1
  Al  Al10  1  0.046712  0.113572  0.943931  1
  Al  Al11  1  0.453288  0.613572  0.556069  1
  Al  Al12  1  0.949422  0.362868  0.050229  1
  Al  Al13  1  0.550578  0.862868  0.449771  1
  Al  Al14  1  0.050578  0.637132  0.949771  1
  Al  Al15  1  0.449422  0.137132  0.550229  1
  Al  Al16  1  0.688196  0.795105  0.177811  1
  Al  Al17  1  0.811804  0.295105  0.322189  1
  Al  Al18  1  0.311804  0.204895  0.822189  1
  Al  Al19  1  0.188196  0.704895  0.677811  1
  Al  Al20  1  0.676357  0.452743  0.168749  1
  Al  Al21  1  0.823643  0.952743  0.331251  1
  Al  Al22  1  0.323643  0.547257  0.831251  1
  Al  Al23  1  0.176357  0.047257  0.668749  1
  Si  Si24  1  0.894384  0.878861  0.533714  1
  Si  Si25  1  0.605616  0.378861  0.966286  1
  Si  Si26  1  0.105616  0.121139  0.466286  1
  Si  Si27  1  0.394384  0.621139  0.033714  1
  Si  Si28  1  0.899913  0.372406  0.510804  1
  Si  Si29  1  0.600087  0.872406  0.989196  1
  Si  Si30  1  0.100087  0.627594  0.489196  1
  Si  Si31  1  0.399913  0.127594  0.010804  1
  Si  Si32  1  0.295398  0.888675  0.126811  1
  Si  Si33  1  0.204602  0.388675  0.373189  1
  Si  Si34  1  0.704602  0.111325  0.873189  1
  Si  Si35  1  0.795398  0.611325  0.626811  1
  Si  Si36  1  0.293721  0.354696  0.124284  1
  Si  Si37  1  0.206279  0.854696  0.375716  1
  Si  Si38  1  0.706279  0.645304  0.875716  1
  Si  Si39  1  0.793721  0.145304  0.624284  1
  Si  Si40  1  0.468007  0.878226  0.651461  1
  Si  Si41  1  0.031993  0.378226  0.848539  1
  Si  Si42  1  0.531993  0.121774  0.348539  1
  Si  Si43  1  0.968007  0.621774  0.151461  1
  Si  Si44  1  0.409550  0.375301  0.672292  1
  Si  Si45  1  0.090450  0.875301  0.827708  1
  Si  Si46  1  0.590450  0.624699  0.327708  1
  Si  Si47  1  0.909550  0.124699  0.172292  1
  Fe  Fe48  1  0.265728  0.876687  0.969934  1
  Fe  Fe49  1  0.234272  0.376687  0.530066  1
  Fe  Fe50  1  0.734272  0.123313  0.030066  1
  Fe  Fe51  1  0.765728  0.623313  0.469934  1
  Fe  Fe52  1  0.263474  0.373328  0.965326  1
  Fe  Fe53  1  0.236526  0.873328  0.534674  1
  Fe  Fe54  1  0.736526  0.626672  0.034674  1
  Fe  Fe55  1  0.763474  0.126672  0.465326  1
  Fe  Fe56  1  0.054237  0.863052  0.228969  1
  Fe  Fe57  1  0.445763  0.363052  0.271031  1
  Fe  Fe58  1  0.945763  0.136948  0.771031  1
  Fe  Fe59  1  0.554237  0.636948  0.728969  1
  Fe  Fe60  1  0.055734  0.382907  0.227317  1
  Fe  Fe61  1  0.444266  0.882907  0.272683  1
  Fe  Fe62  1  0.944266  0.617093  0.772683  1
  Fe  Fe63  1  0.555734  0.117093  0.727317  1
