# generated using pymatgen
data_H3N
_symmetry_space_group_name_H-M   'P 1'
_cell_length_a   5.06572539
_cell_length_b   5.06572539
_cell_length_c   5.06572539
_cell_angle_alpha   90.00000000
_cell_angle_beta   90.00000000
_cell_angle_gamma   90.00000000
_symmetry_Int_Tables_number   1
_chemical_formula_structural   H3N
_chemical_formula_sum   'H12 N4'
_cell_volume   129.99448558
_cell_formula_units_Z   4
loop_
 _symmetry_equiv_pos_site_id
 _symmetry_equiv_pos_as_xyz
  1  'x, y, z'
loop_
 _atom_site_type_symbol
 _atom_site_label
 _atom_site_symmetry_multiplicity
 _atom_site_fract_x
 _atom_site_fract_y
 _atom_site_fract_z
 _atom_site_occupancy
  H  H0  1  0.633407  0.514055  0.132751  1
  H  H1  1  0.133407  0.985945  0.867249  1
  H  H2  1  0.985945  0.867249  0.133407  1
  H  H3  1  0.485945  0.632751  0.866593  1
  H  H4  1  0.632751  0.866593  0.485945  1
  H  H5  1  0.514055  0.132751  0.633407  1
  H  H6  1  0.367249  0.366593  0.014055  1
  H  H7  1  0.132751  0.633407  0.514055  1
  H  H8  1  0.866593  0.485945  0.632751  1
  H  H9  1  0.366593  0.014055  0.367249  1
  H  H10  1  0.014055  0.367249  0.366593  1
  H  H11  1  0.867249  0.133407  0.985945  1
  N  N12  1  0.961661  0.538339  0.461661  1
  N  N13  1  0.038339  0.038339  0.038339  1
  N  N14  1  0.538339  0.461661  0.961661  1
  N  N15  1  0.461661  0.961661  0.538339  1
