# generated using pymatgen
data_FeS2
_symmetry_space_group_name_H-M   'P 1'
_cell_length_a   5.39401338
_cell_length_b   5.39395630
_cell_length_c   5.39399082
_cell_angle_alpha   90.00000000
_cell_angle_beta   89.99343244
_cell_angle_gamma   90.00000000
_symmetry_Int_Tables_number   1
_chemical_formula_structural   FeS2
_chemical_formula_sum   'Fe4 S8'
_cell_volume   156.93855262
_cell_formula_units_Z   4
loop_
 _symmetry_equiv_pos_site_id
 _symmetry_equiv_pos_as_xyz
  1  'x, y, z'
loop_
 _atom_site_type_symbol
 _atom_site_label
 _atom_site_symmetry_multiplicity
 _atom_site_fract_x
 _atom_site_fract_y
 _atom_site_fract_z
 _atom_site_occupancy
  Fe  Fe0  1  0.000000  0.500000  0.500000  1
  Fe  Fe1  1  0.000000  0.000000  0.000000  1
  Fe  Fe2  1  0.500000  0.500000  0.000000  1
  Fe  Fe3  1  0.500000  0.000000  0.500000  1
  S  S4  1  0.883061  0.116952  0.616947  1
  S  S5  1  0.616937  0.616948  0.616950  1
  S  S6  1  0.116939  0.616952  0.883053  1
  S  S7  1  0.383063  0.383052  0.383050  1
  S  S8  1  0.616937  0.883052  0.116950  1
  S  S9  1  0.383063  0.116948  0.883050  1
  S  S10  1  0.116939  0.883048  0.383053  1
  S  S11  1  0.883061  0.383048  0.116947  1
