# generated using pymatgen
data_SbO2
_symmetry_space_group_name_H-M   'P 1'
_cell_length_a   4.91293792
_cell_length_b   5.56807663
_cell_length_c   11.92640190
_cell_angle_alpha   90.00000000
_cell_angle_beta   90.00000000
_cell_angle_gamma   90.00000000
_symmetry_Int_Tables_number   1
_chemical_formula_structural   SbO2
_chemical_formula_sum   'Sb8 O16'
_cell_volume   326.25405653
_cell_formula_units_Z   8
loop_
 _symmetry_equiv_pos_site_id
 _symmetry_equiv_pos_as_xyz
  1  'x, y, z'
loop_
 _atom_site_type_symbol
 _atom_site_label
 _atom_site_symmetry_multiplicity
 _atom_site_fract_x
 _atom_site_fract_y
 _atom_site_fract_z
 _atom_site_occupancy
  Sb  Sb0  1  0.037682  0.013199  0.502569  1
  Sb  Sb1  1  0.000841  0.368872  0.251641  1
  Sb  Sb2  1  0.500841  0.131128  0.751641  1
  Sb  Sb3  1  0.962318  0.986801  0.002569  1
  Sb  Sb4  1  0.537682  0.486801  0.002569  1
  Sb  Sb5  1  0.462318  0.513199  0.502569  1
  Sb  Sb6  1  0.499159  0.868872  0.251641  1
  Sb  Sb7  1  0.999159  0.631128  0.751641  1
  O  O8  1  0.218779  0.908041  0.812573  1
  O  O9  1  0.724063  0.864362  0.690694  1
  O  O10  1  0.167785  0.339795  0.408333  1
  O  O11  1  0.837224  0.322827  0.096889  1
  O  O12  1  0.781221  0.091959  0.312573  1
  O  O13  1  0.275937  0.135638  0.190694  1
  O  O14  1  0.662776  0.822827  0.096889  1
  O  O15  1  0.718779  0.591959  0.312573  1
  O  O16  1  0.332215  0.839795  0.408333  1
  O  O17  1  0.281221  0.408041  0.812573  1
  O  O18  1  0.337224  0.177173  0.596889  1
  O  O19  1  0.832215  0.660205  0.908333  1
  O  O20  1  0.224063  0.635638  0.190694  1
  O  O21  1  0.162776  0.677173  0.596889  1
  O  O22  1  0.667785  0.160205  0.908333  1
  O  O23  1  0.775937  0.364362  0.690694  1
