# generated using pymatgen
data_SrAl2
_symmetry_space_group_name_H-M   'P 1'
_cell_length_a   4.81846989
_cell_length_b   6.09690224
_cell_length_c   6.09690283
_cell_angle_alpha   80.97426530
_cell_angle_beta   66.72422057
_cell_angle_gamma   66.72421776
_symmetry_Int_Tables_number   1
_chemical_formula_structural   SrAl2
_chemical_formula_sum   'Sr2 Al4'
_cell_volume   151.14477466
_cell_formula_units_Z   2
loop_
 _symmetry_equiv_pos_site_id
 _symmetry_equiv_pos_as_xyz
  1  'x, y, z'
loop_
 _atom_site_type_symbol
 _atom_site_label
 _atom_site_symmetry_multiplicity
 _atom_site_fract_x
 _atom_site_fract_y
 _atom_site_fract_z
 _atom_site_occupancy
  Sr  Sr0  1  0.050100  0.699900  0.699900  1
  Sr  Sr1  1  0.949900  0.300100  0.300100  1
  Al  Al2  1  0.338785  0.092954  0.729476  1
  Al  Al3  1  0.661215  0.907046  0.270524  1
  Al  Al4  1  0.338785  0.729476  0.092954  1
  Al  Al5  1  0.661215  0.270524  0.907046  1
