# generated using pymatgen
data_SnPd
_symmetry_space_group_name_H-M   'P 1'
_cell_length_a   4.01417249
_cell_length_b   6.14796271
_cell_length_c   6.48529534
_cell_angle_alpha   90.00000000
_cell_angle_beta   90.00000000
_cell_angle_gamma   90.00000000
_symmetry_Int_Tables_number   1
_chemical_formula_structural   SnPd
_chemical_formula_sum   'Sn4 Pd4'
_cell_volume   160.05049202
_cell_formula_units_Z   4
loop_
 _symmetry_equiv_pos_site_id
 _symmetry_equiv_pos_as_xyz
  1  'x, y, z'
loop_
 _atom_site_type_symbol
 _atom_site_label
 _atom_site_symmetry_multiplicity
 _atom_site_fract_x
 _atom_site_fract_y
 _atom_site_fract_z
 _atom_site_occupancy
  Pd  Pd0  1  0.750000  0.989740  0.810305  1
  Pd  Pd1  1  0.250000  0.010260  0.189695  1
  Pd  Pd2  1  0.750000  0.489740  0.689695  1
  Pd  Pd3  1  0.250000  0.510260  0.310305  1
  Sn  Sn4  1  0.750000  0.809314  0.405311  1
  Sn  Sn5  1  0.250000  0.190686  0.594689  1
  Sn  Sn6  1  0.750000  0.309314  0.094689  1
  Sn  Sn7  1  0.250000  0.690686  0.905311  1
