# generated using pymatgen
data_PdPbO2
_symmetry_space_group_name_H-M   'P 1'
_cell_length_a   4.78132828
_cell_length_b   5.52875305
_cell_length_c   6.03048243
_cell_angle_alpha   117.28394670
_cell_angle_beta   113.35518923
_cell_angle_gamma   90.00000000
_symmetry_Int_Tables_number   1
_chemical_formula_structural   PdPbO2
_chemical_formula_sum   'Pd2 Pb2 O4'
_cell_volume   126.80340300
_cell_formula_units_Z   2
loop_
 _symmetry_equiv_pos_site_id
 _symmetry_equiv_pos_as_xyz
  1  'x, y, z'
loop_
 _atom_site_type_symbol
 _atom_site_label
 _atom_site_symmetry_multiplicity
 _atom_site_fract_x
 _atom_site_fract_y
 _atom_site_fract_z
 _atom_site_occupancy
  O  O0  1  0.650209  0.150209  0.300419  1
  O  O1  1  0.349791  0.349791  0.699581  1
  O  O2  1  0.650209  0.650209  0.300419  1
  O  O3  1  0.349791  0.849791  0.699581  1
  Pd  Pd4  1  0.500000  0.500000  0.500000  1
  Pd  Pd5  1  0.000000  0.000000  0.500000  1
  Pb  Pb6  1  0.771836  0.250000  0.000000  1
  Pb  Pb7  1  0.228164  0.750000  0.000000  1
