# generated using pymatgen
data_CsHF2
_symmetry_space_group_name_H-M   'P 1'
_cell_length_a   8.77552078
_cell_length_b   6.20930879
_cell_length_c   5.91842804
_cell_angle_alpha   58.45984205
_cell_angle_beta   42.13474703
_cell_angle_gamma   45.00751344
_symmetry_Int_Tables_number   1
_chemical_formula_structural   CsHF2
_chemical_formula_sum   'Cs2 H2 F4'
_cell_volume   153.00500373
_cell_formula_units_Z   2
loop_
 _symmetry_equiv_pos_site_id
 _symmetry_equiv_pos_as_xyz
  1  'x, y, z'
loop_
 _atom_site_type_symbol
 _atom_site_label
 _atom_site_symmetry_multiplicity
 _atom_site_fract_x
 _atom_site_fract_y
 _atom_site_fract_z
 _atom_site_occupancy
  Cs  Cs0  1  0.252351  0.500437  0.497939  1
  Cs  Cs1  1  0.752359  0.498819  0.502371  1
  H  H2  1  0.999234  0.000917  0.002310  1
  H  H3  1  0.501347  0.998499  0.000665  1
  F  F4  1  0.127891  0.005412  0.002254  1
  F  F5  1  0.371065  0.261237  0.995407  1
  F  F6  1  0.870182  0.995839  0.001969  1
  F  F7  1  0.631696  0.736654  0.005652  1
