# generated using pymatgen
data_GePtSe
_symmetry_space_group_name_H-M   'P 1'
_cell_length_a   6.07660116
_cell_length_b   6.10666747
_cell_length_c   6.15643453
_cell_angle_alpha   90.00000000
_cell_angle_beta   90.00000000
_cell_angle_gamma   90.00000000
_symmetry_Int_Tables_number   1
_chemical_formula_structural   GePtSe
_chemical_formula_sum   'Ge4 Pt4 Se4'
_cell_volume   228.45163433
_cell_formula_units_Z   4
loop_
 _symmetry_equiv_pos_site_id
 _symmetry_equiv_pos_as_xyz
  1  'x, y, z'
loop_
 _atom_site_type_symbol
 _atom_site_label
 _atom_site_symmetry_multiplicity
 _atom_site_fract_x
 _atom_site_fract_y
 _atom_site_fract_z
 _atom_site_occupancy
  Ge  Ge0  1  0.880680  0.881146  0.375109  1
  Ge  Ge1  1  0.880680  0.381146  0.624891  1
  Ge  Ge2  1  0.380680  0.618854  0.375109  1
  Ge  Ge3  1  0.380680  0.118855  0.624891  1
  Se  Se4  1  0.114790  0.616907  0.863308  1
  Se  Se5  1  0.114790  0.116907  0.136692  1
  Se  Se6  1  0.614790  0.883093  0.863308  1
  Se  Se7  1  0.614790  0.383093  0.136692  1
  Pt  Pt8  1  0.002630  0.508565  0.259110  1
  Pt  Pt9  1  0.502630  0.491435  0.740890  1
  Pt  Pt10  1  0.502630  0.991435  0.259110  1
  Pt  Pt11  1  0.002630  0.008565  0.740890  1
