# generated using pymatgen
data_P2Pb2O7
_symmetry_space_group_name_H-M   'P 1'
_cell_length_a   7.09293790
_cell_length_b   7.15691402
_cell_length_c   12.95764574
_cell_angle_alpha   83.95705159
_cell_angle_beta   90.31665648
_cell_angle_gamma   89.26692115
_symmetry_Int_Tables_number   1
_chemical_formula_structural   P2Pb2O7
_chemical_formula_sum   'P8 Pb8 O28'
_cell_volume   654.05179945
_cell_formula_units_Z   4
loop_
 _symmetry_equiv_pos_site_id
 _symmetry_equiv_pos_as_xyz
  1  'x, y, z'
loop_
 _atom_site_type_symbol
 _atom_site_label
 _atom_site_symmetry_multiplicity
 _atom_site_fract_x
 _atom_site_fract_y
 _atom_site_fract_z
 _atom_site_occupancy
  P  P0  1  0.816724  0.303390  0.590649  1
  P  P1  1  0.764682  0.111192  0.398910  1
  P  P2  1  0.831822  0.697445  0.913599  1
  P  P3  1  0.413291  0.285632  0.898930  1
  P  P4  1  0.168178  0.302555  0.086401  1
  P  P5  1  0.183276  0.696610  0.409351  1
  P  P6  1  0.586709  0.714368  0.101070  1
  P  P7  1  0.235318  0.888808  0.601090  1
  Pb  Pb8  1  0.672226  0.215632  0.141237  1
  Pb  Pb9  1  0.244157  0.192954  0.353339  1
  Pb  Pb10  1  0.091262  0.809749  0.142461  1
  Pb  Pb11  1  0.351207  0.375035  0.630778  1
  Pb  Pb12  1  0.755843  0.807046  0.646661  1
  Pb  Pb13  1  0.908738  0.190251  0.857539  1
  Pb  Pb14  1  0.327774  0.784368  0.858763  1
  Pb  Pb15  1  0.648793  0.624965  0.369222  1
  O  O16  1  0.695512  0.825779  0.843444  1
  O  O17  1  0.884564  0.220851  0.483170  1
  O  O18  1  0.402891  0.760134  0.639487  1
  O  O19  1  0.597109  0.239866  0.360513  1
  O  O20  1  0.712248  0.863915  0.142881  1
  O  O21  1  0.406085  0.795720  0.046489  1
  O  O22  1  0.904995  0.095242  0.310792  1
  O  O23  1  0.593915  0.204280  0.953511  1
  O  O24  1  0.299102  0.849400  0.346078  1
  O  O25  1  0.304488  0.174221  0.156556  1
  O  O26  1  0.994075  0.356854  0.646143  1
  O  O27  1  0.709835  0.614065  0.014437  1
  O  O28  1  0.450000  0.449248  0.816131  1
  O  O29  1  0.287752  0.136085  0.857119  1
  O  O30  1  0.115436  0.779149  0.516830  1
  O  O31  1  0.700898  0.150600  0.653922  1
  O  O32  1  0.705413  0.923218  0.456266  1
  O  O33  1  0.907027  0.529207  0.863807  1
  O  O34  1  0.294587  0.076783  0.543734  1
  O  O35  1  0.686936  0.474882  0.556036  1
  O  O36  1  0.550000  0.550752  0.183869  1
  O  O37  1  0.313064  0.525119  0.443964  1
  O  O38  1  0.992233  0.816810  0.953950  1
  O  O39  1  0.290165  0.385935  0.985563  1
  O  O40  1  0.095005  0.904758  0.689208  1
  O  O41  1  0.005925  0.643146  0.353857  1
  O  O42  1  0.007767  0.183190  0.046050  1
  O  O43  1  0.092973  0.470793  0.136193  1
