# generated using pymatgen
data_InOF
_symmetry_space_group_name_H-M   'P 1'
_cell_length_a   5.56630483
_cell_length_b   5.56630483
_cell_length_c   6.30240513
_cell_angle_alpha   111.49283514
_cell_angle_beta   111.49283519
_cell_angle_gamma   99.80684254
_symmetry_Int_Tables_number   1
_chemical_formula_structural   InOF
_chemical_formula_sum   'In4 O4 F4'
_cell_volume   158.25288332
_cell_formula_units_Z   4
loop_
 _symmetry_equiv_pos_site_id
 _symmetry_equiv_pos_as_xyz
  1  'x, y, z'
loop_
 _atom_site_type_symbol
 _atom_site_label
 _atom_site_symmetry_multiplicity
 _atom_site_fract_x
 _atom_site_fract_y
 _atom_site_fract_z
 _atom_site_occupancy
  O  O0  1  0.011409  0.261408  0.522817  1
  O  O1  1  0.261408  0.011409  0.022817  1
  O  O2  1  0.988591  0.738591  0.477183  1
  O  O3  1  0.738591  0.988591  0.977183  1
  F  F4  1  0.500000  0.000000  0.500000  1
  F  F5  1  0.500000  0.500000  0.500000  1
  F  F6  1  0.000000  0.500000  0.000000  1
  F  F7  1  0.500000  0.500000  0.000000  1
  In  In8  1  0.075569  0.924431  0.250000  1
  In  In9  1  0.674431  0.325569  0.250000  1
  In  In10  1  0.924431  0.075569  0.750000  1
  In  In11  1  0.325569  0.674431  0.750000  1
