# generated using pymatgen
data_BaSO4
_symmetry_space_group_name_H-M   'P 1'
_cell_length_a   8.95282157
_cell_length_b   5.58267305
_cell_length_c   7.27492207
_cell_angle_alpha   90.00000000
_cell_angle_beta   90.00000000
_cell_angle_gamma   90.00000000
_symmetry_Int_Tables_number   1
_chemical_formula_structural   BaSO4
_chemical_formula_sum   'Ba4 S4 O16'
_cell_volume   363.60552073
_cell_formula_units_Z   4
loop_
 _symmetry_equiv_pos_site_id
 _symmetry_equiv_pos_as_xyz
  1  'x, y, z'
loop_
 _atom_site_type_symbol
 _atom_site_label
 _atom_site_symmetry_multiplicity
 _atom_site_fract_x
 _atom_site_fract_y
 _atom_site_fract_z
 _atom_site_occupancy
  Ba  Ba0  1  0.315731  0.749306  0.907174  1
  Ba  Ba1  1  0.184269  0.250694  0.407174  1
  Ba  Ba2  1  0.815731  0.750694  0.092826  1
  Ba  Ba3  1  0.684269  0.249306  0.592826  1
  S  S4  1  0.434892  0.752649  0.437228  1
  S  S5  1  0.065108  0.247351  0.937228  1
  S  S6  1  0.934892  0.747351  0.562772  1
  S  S7  1  0.565108  0.252649  0.062772  1
  O  O8  1  0.582917  0.755103  0.348103  1
  O  O9  1  0.917083  0.244897  0.848103  1
  O  O10  1  0.082917  0.744897  0.651897  1
  O  O11  1  0.417083  0.255103  0.151897  1
  O  O12  1  0.310209  0.753834  0.301247  1
  O  O13  1  0.189791  0.246166  0.801247  1
  O  O14  1  0.810209  0.746166  0.698753  1
  O  O15  1  0.689791  0.253835  0.198753  1
  O  O16  1  0.580591  0.468474  0.940084  1
  O  O17  1  0.919409  0.531526  0.440084  1
  O  O18  1  0.080591  0.031526  0.059916  1
  O  O19  1  0.419409  0.968474  0.559916  1
  O  O20  1  0.420325  0.534094  0.557026  1
  O  O21  1  0.079675  0.465906  0.057026  1
  O  O22  1  0.920325  0.965906  0.442974  1
  O  O23  1  0.579675  0.034094  0.942974  1
