# generated using pymatgen
data_SiNi
_symmetry_space_group_name_H-M   'P 1'
_cell_length_a   3.10197116
_cell_length_b   5.41261471
_cell_length_c   5.78839196
_cell_angle_alpha   89.99654351
_cell_angle_beta   90.00010692
_cell_angle_gamma   90.00014376
_symmetry_Int_Tables_number   1
_chemical_formula_structural   SiNi
_chemical_formula_sum   'Si4 Ni4'
_cell_volume   97.18579698
_cell_formula_units_Z   4
loop_
 _symmetry_equiv_pos_site_id
 _symmetry_equiv_pos_as_xyz
  1  'x, y, z'
loop_
 _atom_site_type_symbol
 _atom_site_label
 _atom_site_symmetry_multiplicity
 _atom_site_fract_x
 _atom_site_fract_y
 _atom_site_fract_z
 _atom_site_occupancy
  Si  Si0  1  0.249999  0.817603  0.568031  1
  Si  Si1  1  0.749999  0.682490  0.067927  1
  Si  Si2  1  0.750005  0.182508  0.432011  1
  Si  Si3  1  0.249999  0.317523  0.932034  1
  Ni  Ni4  1  0.250000  0.994214  0.189894  1
  Ni  Ni5  1  0.750000  0.005696  0.810034  1
  Ni  Ni6  1  0.249999  0.494260  0.310102  1
  Ni  Ni7  1  0.749999  0.505705  0.689967  1
