# generated using pymatgen
data_Ca3Au
_symmetry_space_group_name_H-M   'P 1'
_cell_length_a   6.81669150
_cell_length_b   7.86576880
_cell_length_c   9.91761933
_cell_angle_alpha   90.00000000
_cell_angle_beta   90.00000000
_cell_angle_gamma   90.00000000
_symmetry_Int_Tables_number   1
_chemical_formula_structural   Ca3Au
_chemical_formula_sum   'Ca12 Au4'
_cell_volume   531.76806365
_cell_formula_units_Z   4
loop_
 _symmetry_equiv_pos_site_id
 _symmetry_equiv_pos_as_xyz
  1  'x, y, z'
loop_
 _atom_site_type_symbol
 _atom_site_label
 _atom_site_symmetry_multiplicity
 _atom_site_fract_x
 _atom_site_fract_y
 _atom_site_fract_z
 _atom_site_occupancy
  Au  Au0  1  0.949613  0.378212  0.250000  1
  Au  Au1  1  0.449613  0.121788  0.750000  1
  Au  Au2  1  0.550387  0.878212  0.250000  1
  Au  Au3  1  0.050387  0.621788  0.750000  1
  Ca  Ca4  1  0.143857  0.036633  0.250000  1
  Ca  Ca5  1  0.643857  0.463367  0.750000  1
  Ca  Ca6  1  0.356143  0.536633  0.250000  1
  Ca  Ca7  1  0.856143  0.963367  0.750000  1
  Ca  Ca8  1  0.662958  0.174891  0.063806  1
  Ca  Ca9  1  0.162958  0.325109  0.936194  1
  Ca  Ca10  1  0.837042  0.674891  0.436194  1
  Ca  Ca11  1  0.337042  0.825109  0.563806  1
  Ca  Ca12  1  0.337042  0.825109  0.936194  1
  Ca  Ca13  1  0.837042  0.674891  0.063806  1
  Ca  Ca14  1  0.162958  0.325109  0.563806  1
  Ca  Ca15  1  0.662958  0.174891  0.436194  1
