# generated using pymatgen
data_YTiO3
_symmetry_space_group_name_H-M   'P 1'
_cell_length_a   5.37125947
_cell_length_b   5.69408182
_cell_length_c   7.73524870
_cell_angle_alpha   90.00326686
_cell_angle_beta   89.99786296
_cell_angle_gamma   89.99982190
_symmetry_Int_Tables_number   1
_chemical_formula_structural   YTiO3
_chemical_formula_sum   'Y4 Ti4 O12'
_cell_volume   236.57786966
_cell_formula_units_Z   4
loop_
 _symmetry_equiv_pos_site_id
 _symmetry_equiv_pos_as_xyz
  1  'x, y, z'
loop_
 _atom_site_type_symbol
 _atom_site_label
 _atom_site_symmetry_multiplicity
 _atom_site_fract_x
 _atom_site_fract_y
 _atom_site_fract_z
 _atom_site_occupancy
  Y  Y0  1  0.019462  0.931397  0.749982  1
  Y  Y1  1  0.519465  0.568591  0.250020  1
  Y  Y2  1  0.480535  0.431409  0.749979  1
  Y  Y3  1  0.980536  0.068604  0.250017  1
  Ti  Ti4  1  0.000000  0.499999  0.500000  1
  Ti  Ti5  1  0.499999  1.000000  0.500000  1
  Ti  Ti6  1  0.500002  0.000001  0.000001  1
  Ti  Ti7  1  0.999998  0.500002  0.000001  1
  O  O8  1  0.691654  0.302231  0.442552  1
  O  O9  1  0.191652  0.197776  0.557450  1
  O  O10  1  0.808353  0.802229  0.057456  1
  O  O11  1  0.308349  0.697767  0.942544  1
  O  O12  1  0.308347  0.697768  0.557448  1
  O  O13  1  0.808347  0.802225  0.442550  1
  O  O14  1  0.191648  0.197770  0.942543  1
  O  O15  1  0.691651  0.302232  0.057457  1
  O  O16  1  0.115275  0.458163  0.250005  1
  O  O17  1  0.615278  0.041835  0.749993  1
  O  O18  1  0.384721  0.958162  0.250006  1
  O  O19  1  0.884726  0.541838  0.749993  1
