# generated using pymatgen
data_Sr2IrO4
_symmetry_space_group_name_H-M   'P 1'
_cell_length_a   5.52416800
_cell_length_b   5.52416801
_cell_length_c   13.68865317
_cell_angle_alpha   101.64101478
_cell_angle_beta   101.64101478
_cell_angle_gamma   90.00000005
_symmetry_Int_Tables_number   1
_chemical_formula_structural   Sr2IrO4
_chemical_formula_sum   'Sr8 Ir4 O16'
_cell_volume   400.36001680
_cell_formula_units_Z   4
loop_
 _symmetry_equiv_pos_site_id
 _symmetry_equiv_pos_as_xyz
  1  'x, y, z'
loop_
 _atom_site_type_symbol
 _atom_site_label
 _atom_site_symmetry_multiplicity
 _atom_site_fract_x
 _atom_site_fract_y
 _atom_site_fract_z
 _atom_site_occupancy
  O  O0  1  0.954709  0.704709  0.409417  1
  O  O1  1  0.204709  0.454709  0.909417  1
  O  O2  1  0.545291  0.795291  0.590583  1
  O  O3  1  0.295291  0.045291  0.090583  1
  O  O4  1  0.045291  0.295291  0.590583  1
  O  O5  1  0.795291  0.545291  0.090583  1
  O  O6  1  0.454709  0.204709  0.409417  1
  O  O7  1  0.704709  0.954709  0.909417  1
  O  O8  1  0.935543  0.064457  0.750000  1
  O  O9  1  0.185543  0.435543  0.250000  1
  O  O10  1  0.564457  0.814457  0.250000  1
  O  O11  1  0.314457  0.685543  0.750000  1
  O  O12  1  0.685543  0.314457  0.250000  1
  O  O13  1  0.435543  0.185543  0.750000  1
  O  O14  1  0.814457  0.564457  0.750000  1
  O  O15  1  0.064457  0.935543  0.250000  1
  Sr  Sr16  1  0.800191  0.050191  0.100382  1
  Sr  Sr17  1  0.550191  0.300191  0.600382  1
  Sr  Sr18  1  0.699809  0.449809  0.899618  1
  Sr  Sr19  1  0.949809  0.199809  0.399618  1
  Sr  Sr20  1  0.050191  0.800191  0.600382  1
  Sr  Sr21  1  0.300191  0.550191  0.100382  1
  Sr  Sr22  1  0.449809  0.699809  0.399618  1
  Sr  Sr23  1  0.199809  0.949809  0.899618  1
  Ir  Ir24  1  0.125000  0.375000  0.750000  1
  Ir  Ir25  1  0.875000  0.625000  0.250000  1
  Ir  Ir26  1  0.375000  0.125000  0.250000  1
  Ir  Ir27  1  0.625000  0.875000  0.750000  1
