# generated using pymatgen
data_NaSbS2
_symmetry_space_group_name_H-M   'P 1'
_cell_length_a   8.18805993
_cell_length_b   11.08920512
_cell_length_c   7.25179707
_cell_angle_alpha   28.60735093
_cell_angle_beta   52.86831283
_cell_angle_gamma   40.16614701
_symmetry_Int_Tables_number   1
_chemical_formula_structural   NaSbS2
_chemical_formula_sum   'Na2 Sb2 S4'
_cell_volume   198.47423521
_cell_formula_units_Z   2
loop_
 _symmetry_equiv_pos_site_id
 _symmetry_equiv_pos_as_xyz
  1  'x, y, z'
loop_
 _atom_site_type_symbol
 _atom_site_label
 _atom_site_symmetry_multiplicity
 _atom_site_fract_x
 _atom_site_fract_y
 _atom_site_fract_z
 _atom_site_occupancy
  Na  Na0  1  0.495253  0.007646  0.992927  1
  Na  Na1  1  0.251948  0.499449  0.995966  1
  Sb  Sb2  1  0.027605  0.945381  0.051849  1
  Sb  Sb3  1  0.719928  0.560873  0.937490  1
  S  S4  1  0.288199  0.946797  0.567336  1
  S  S5  1  0.764875  0.948289  0.533413  1
  S  S6  1  0.458111  0.560128  0.422393  1
  S  S7  1  0.982201  0.556907  0.459162  1
