# generated using pymatgen
data_CoF3
_symmetry_space_group_name_H-M   'P 1'
_cell_length_a   5.51666171
_cell_length_b   5.51666172
_cell_length_c   6.50871553
_cell_angle_alpha   90.00000000
_cell_angle_beta   90.00000000
_cell_angle_gamma   120.00000002
_symmetry_Int_Tables_number   1
_chemical_formula_structural   CoF3
_chemical_formula_sum   'Co3 F9'
_cell_volume   171.54522315
_cell_formula_units_Z   3
loop_
 _symmetry_equiv_pos_site_id
 _symmetry_equiv_pos_as_xyz
  1  'x, y, z'
loop_
 _atom_site_type_symbol
 _atom_site_label
 _atom_site_symmetry_multiplicity
 _atom_site_fract_x
 _atom_site_fract_y
 _atom_site_fract_z
 _atom_site_occupancy
  F  F0  1  0.666636  0.834512  0.833370  1
  F  F1  1  0.165488  0.832124  0.833370  1
  F  F2  1  0.167876  0.333364  0.833370  1
  F  F3  1  0.502436  0.502436  0.500000  1
  F  F4  1  0.497564  0.000000  0.500000  1
  F  F5  1  0.000000  0.497564  0.500000  1
  F  F6  1  0.834512  0.666636  0.166630  1
  F  F7  1  0.333364  0.167876  0.166630  1
  F  F8  1  0.832124  0.165488  0.166630  1
  Co  Co9  1  0.666667  0.333333  0.333331  1
  Co  Co10  1  0.333333  0.666667  0.666669  1
  Co  Co11  1  0.000000  0.000000  0.000000  1
