# generated using pymatgen
data_FeAsS
_symmetry_space_group_name_H-M   'P 1'
_cell_length_a   5.75059485
_cell_length_b   5.65879795
_cell_length_c   5.73503202
_cell_angle_alpha   90.05130310
_cell_angle_beta   112.05017274
_cell_angle_gamma   90.01712340
_symmetry_Int_Tables_number   1
_chemical_formula_structural   FeAsS
_chemical_formula_sum   'Fe4 As4 S4'
_cell_volume   172.97548001
_cell_formula_units_Z   4
loop_
 _symmetry_equiv_pos_site_id
 _symmetry_equiv_pos_as_xyz
  1  'x, y, z'
loop_
 _atom_site_type_symbol
 _atom_site_label
 _atom_site_symmetry_multiplicity
 _atom_site_fract_x
 _atom_site_fract_y
 _atom_site_fract_z
 _atom_site_occupancy
  Fe  Fe0  1  0.704267  0.992145  0.711021  1
  Fe  Fe1  1  0.295733  0.007855  0.288979  1
  Fe  Fe2  1  0.796047  0.491035  0.287215  1
  Fe  Fe3  1  0.203953  0.508965  0.712785  1
  As  As4  1  0.869542  0.867972  0.144802  1
  As  As5  1  0.130458  0.132028  0.855198  1
  As  As6  1  0.629950  0.370031  0.852055  1
  As  As7  1  0.370050  0.629969  0.147945  1
  S  S8  1  0.324630  0.867208  0.653750  1
  S  S9  1  0.675370  0.132792  0.346250  1
  S  S10  1  0.175936  0.365403  0.349548  1
  S  S11  1  0.824064  0.634597  0.650452  1
