# generated using pymatgen
data_CsCuO2
_symmetry_space_group_name_H-M   'P 1'
_cell_length_a   5.35057622
_cell_length_b   5.52285267
_cell_length_c   6.66186656
_cell_angle_alpha   89.99997920
_cell_angle_beta   113.67713235
_cell_angle_gamma   89.99999997
_symmetry_Int_Tables_number   1
_chemical_formula_structural   CsCuO2
_chemical_formula_sum   'Cs2 Cu2 O4'
_cell_volume   180.28992642
_cell_formula_units_Z   2
loop_
 _symmetry_equiv_pos_site_id
 _symmetry_equiv_pos_as_xyz
  1  'x, y, z'
loop_
 _atom_site_type_symbol
 _atom_site_label
 _atom_site_symmetry_multiplicity
 _atom_site_fract_x
 _atom_site_fract_y
 _atom_site_fract_z
 _atom_site_occupancy
  O  O0  1  0.899347  0.996938  0.798695  1
  O  O1  1  0.100653  0.003065  0.201305  1
  Cs  Cs2  1  0.682578  0.249999  0.365156  1
  O  O3  1  0.100653  0.496935  0.201305  1
  O  O4  1  0.899347  0.503062  0.798695  1
  Cu  Cu5  1  0.998265  0.250000  0.996530  1
  Cu  Cu6  1  0.001733  0.750000  0.003467  1
  Cs  Cs7  1  0.317424  0.750001  0.634847  1
