# generated using pymatgen
data_Cs(CoS)2
_symmetry_space_group_name_H-M   'P 1'
_cell_length_a   3.79069403
_cell_length_b   3.79069353
_cell_length_c   7.40943945
_cell_angle_alpha   104.82109889
_cell_angle_beta   104.82109418
_cell_angle_gamma   90.00000442
_symmetry_Int_Tables_number   1
_chemical_formula_structural   Cs(CoS)2
_chemical_formula_sum   'Cs1 Co2 S2'
_cell_volume   99.25796444
_cell_formula_units_Z   1
loop_
 _symmetry_equiv_pos_site_id
 _symmetry_equiv_pos_as_xyz
  1  'x, y, z'
loop_
 _atom_site_type_symbol
 _atom_site_label
 _atom_site_symmetry_multiplicity
 _atom_site_fract_x
 _atom_site_fract_y
 _atom_site_fract_z
 _atom_site_occupancy
  Cs  Cs0  1  0.000000  0.000000  0.000000  1
  Co  Co1  1  0.250000  0.750000  0.500000  1
  Co  Co2  1  0.750000  0.250000  0.500000  1
  S  S3  1  0.332514  0.332514  0.665028  1
  S  S4  1  0.667486  0.667486  0.334972  1
