# generated using pymatgen
data_CrO3
_symmetry_space_group_name_H-M   'P 1'
_cell_length_a   4.99884001
_cell_length_b   5.29354655
_cell_length_c   5.82970749
_cell_angle_alpha   90.00000000
_cell_angle_beta   90.00000000
_cell_angle_gamma   118.14651542
_symmetry_Int_Tables_number   1
_chemical_formula_structural   CrO3
_chemical_formula_sum   'Cr2 O6'
_cell_volume   136.02080536
_cell_formula_units_Z   2
loop_
 _symmetry_equiv_pos_site_id
 _symmetry_equiv_pos_as_xyz
  1  'x, y, z'
loop_
 _atom_site_type_symbol
 _atom_site_label
 _atom_site_symmetry_multiplicity
 _atom_site_fract_x
 _atom_site_fract_y
 _atom_site_fract_z
 _atom_site_occupancy
  O  O0  1  0.716055  0.814038  0.750000  1
  O  O1  1  0.131879  0.501991  0.750000  1
  Cr  Cr2  1  0.580199  0.177830  0.250000  1
  O  O3  1  0.629529  0.498005  0.250000  1
  Cr  Cr4  1  0.402427  0.822214  0.750000  1
  O  O5  1  0.901986  0.185868  0.250000  1
  O  O6  1  0.377962  0.000027  1.000039  1
  O  O7  1  0.377962  0.000027  0.499961  1
