# generated using pymatgen
data_GaAs
_symmetry_space_group_name_H-M   'P 1'
_cell_length_a   2.74114563
_cell_length_b   3.99462694
_cell_length_c   3.98305849
_cell_angle_alpha   81.70251449
_cell_angle_beta   70.25154559
_cell_angle_gamma   69.89434412
_symmetry_Int_Tables_number   1
_chemical_formula_structural   GaAs
_chemical_formula_sum   'Ga1 As1'
_cell_volume   38.52769183
_cell_formula_units_Z   1
loop_
 _symmetry_equiv_pos_site_id
 _symmetry_equiv_pos_as_xyz
  1  'x, y, z'
loop_
 _atom_site_type_symbol
 _atom_site_label
 _atom_site_symmetry_multiplicity
 _atom_site_fract_x
 _atom_site_fract_y
 _atom_site_fract_z
 _atom_site_occupancy
  Ga  Ga0  1  0.409647  0.503134  0.489288  1
  As  As1  1  0.030679  0.002505  0.990242  1
