# generated using pymatgen
data_Y2Si4CN6
_symmetry_space_group_name_H-M   'P 1'
_cell_length_a   5.96069820
_cell_length_b   9.99955125
_cell_length_c   10.39374545
_cell_angle_alpha   90.00000000
_cell_angle_beta   89.72151589
_cell_angle_gamma   90.00000000
_symmetry_Int_Tables_number   1
_chemical_formula_structural   Y2Si4CN6
_chemical_formula_sum   'Y8 Si16 C4 N24'
_cell_volume   619.50467881
_cell_formula_units_Z   4
loop_
 _symmetry_equiv_pos_site_id
 _symmetry_equiv_pos_as_xyz
  1  'x, y, z'
loop_
 _atom_site_type_symbol
 _atom_site_label
 _atom_site_symmetry_multiplicity
 _atom_site_fract_x
 _atom_site_fract_y
 _atom_site_fract_z
 _atom_site_occupancy
  C  C0  1  0.270404  0.208052  0.752911  1
  C  C1  1  0.229596  0.708052  0.747089  1
  C  C2  1  0.729596  0.791948  0.247089  1
  C  C3  1  0.770404  0.291948  0.252911  1
  N  N4  1  0.065491  0.446166  0.636962  1
  N  N5  1  0.434509  0.946166  0.863038  1
  N  N6  1  0.934509  0.553834  0.363038  1
  N  N7  1  0.565491  0.053834  0.136962  1
  N  N8  1  0.773157  0.237407  0.745249  1
  N  N9  1  0.726843  0.737407  0.754751  1
  N  N10  1  0.226843  0.762593  0.254751  1
  N  N11  1  0.273157  0.262593  0.245249  1
  N  N12  1  0.002806  0.211030  0.501139  1
  N  N13  1  0.497194  0.711030  0.998861  1
  N  N14  1  0.997194  0.788970  0.498861  1
  N  N15  1  0.502806  0.288970  0.001139  1
  N  N16  1  0.519521  0.463518  0.722040  1
  N  N17  1  0.980479  0.963518  0.777960  1
  N  N18  1  0.480479  0.536482  0.277960  1
  N  N19  1  0.019521  0.036482  0.222040  1
  N  N20  1  0.161342  0.455243  0.898880  1
  N  N21  1  0.338658  0.955243  0.601120  1
  N  N22  1  0.838658  0.544757  0.101120  1
  N  N23  1  0.661342  0.044757  0.398880  1
  N  N24  1  0.028748  0.214560  0.009546  1
  N  N25  1  0.471252  0.714560  0.490454  1
  N  N26  1  0.971252  0.785440  0.990454  1
  N  N27  1  0.528748  0.285440  0.509546  1
  Si  Si28  1  0.018637  0.272745  0.658871  1
  Si  Si29  1  0.481363  0.772745  0.841129  1
  Si  Si30  1  0.981363  0.727255  0.341129  1
  Si  Si31  1  0.518637  0.227255  0.158871  1
  Si  Si32  1  0.524440  0.293927  0.676136  1
  Si  Si33  1  0.975560  0.793927  0.823864  1
  Si  Si34  1  0.475560  0.706073  0.323864  1
  Si  Si35  1  0.024440  0.206073  0.176136  1
  Si  Si36  1  0.243411  0.287479  0.920469  1
  Si  Si37  1  0.256589  0.787479  0.579531  1
  Si  Si38  1  0.756589  0.712521  0.079531  1
  Si  Si39  1  0.743411  0.212521  0.420469  1
  Si  Si40  1  0.254068  0.020135  0.749936  1
  Si  Si41  1  0.245932  0.520135  0.750064  1
  Si  Si42  1  0.745932  0.979865  0.250064  1
  Si  Si43  1  0.754068  0.479865  0.249936  1
  Y  Y44  1  0.737792  0.087129  0.918058  1
  Y  Y45  1  0.762208  0.587129  0.581942  1
  Y  Y46  1  0.262208  0.912871  0.081942  1
  Y  Y47  1  0.237792  0.412871  0.418058  1
  Y  Y48  1  0.734859  0.932601  0.594327  1
  Y  Y49  1  0.765141  0.432601  0.905673  1
  Y  Y50  1  0.265141  0.067399  0.405673  1
  Y  Y51  1  0.234859  0.567399  0.094327  1
