# generated using pymatgen
data_Li4WO5
_symmetry_space_group_name_H-M   'P 1'
_cell_length_a   14.73212786
_cell_length_b   7.74840602
_cell_length_c   5.17550306
_cell_angle_alpha   28.92635087
_cell_angle_beta   29.99607769
_cell_angle_gamma   19.50516799
_symmetry_Int_Tables_number   1
_chemical_formula_structural   Li4WO5
_chemical_formula_sum   'Li4 W1 O5'
_cell_volume   92.27800879
_cell_formula_units_Z   1
loop_
 _symmetry_equiv_pos_site_id
 _symmetry_equiv_pos_as_xyz
  1  'x, y, z'
loop_
 _atom_site_type_symbol
 _atom_site_label
 _atom_site_symmetry_multiplicity
 _atom_site_fract_x
 _atom_site_fract_y
 _atom_site_fract_z
 _atom_site_occupancy
  Li  Li0  1  0.215125  0.967733  0.018614  1
  Li  Li1  1  0.417013  0.980834  0.969907  1
  Li  Li2  1  0.584937  0.014539  0.029180  1
  Li  Li3  1  0.786717  0.026508  0.984330  1
  W  W4  1  0.001195  0.979716  0.018265  1
  O  O5  1  0.188382  0.542151  0.440550  1
  O  O6  1  0.360288  0.557312  0.535695  1
  O  O7  1  0.642517  0.447316  0.454694  1
  O  O8  1  0.814649  0.461773  0.550281  1
  O  O9  1  0.001296  0.499759  0.498078  1
