# generated using pymatgen
data_Cr23C6
_symmetry_space_group_name_H-M   'P 1'
_cell_length_a   7.46568962
_cell_length_b   7.46568962
_cell_length_c   7.46568962
_cell_angle_alpha   60.00000001
_cell_angle_beta   60.00000001
_cell_angle_gamma   59.99999998
_symmetry_Int_Tables_number   1
_chemical_formula_structural   Cr23C6
_chemical_formula_sum   'Cr23 C6'
_cell_volume   294.23531305
_cell_formula_units_Z   1
loop_
 _symmetry_equiv_pos_site_id
 _symmetry_equiv_pos_as_xyz
  1  'x, y, z'
loop_
 _atom_site_type_symbol
 _atom_site_label
 _atom_site_symmetry_multiplicity
 _atom_site_fract_x
 _atom_site_fract_y
 _atom_site_fract_z
 _atom_site_occupancy
  C  C0  1  0.276497  0.723503  0.723503  1
  C  C1  1  0.276497  0.723503  0.276497  1
  C  C2  1  0.723503  0.276497  0.723503  1
  C  C3  1  0.276497  0.276497  0.723503  1
  C  C4  1  0.723503  0.723503  0.276497  1
  C  C5  1  0.723503  0.276497  0.276497  1
  Cr  Cr6  1  0.618755  0.143736  0.618755  1
  Cr  Cr7  1  0.856264  0.381245  0.381245  1
  Cr  Cr8  1  0.381245  0.856264  0.381245  1
  Cr  Cr9  1  0.381245  0.381245  0.856264  1
  Cr  Cr10  1  0.618755  0.618755  0.618755  1
  Cr  Cr11  1  0.660355  0.339645  0.000000  1
  Cr  Cr12  1  0.660355  0.000000  0.000000  1
  Cr  Cr13  1  0.000000  0.339645  0.660355  1
  Cr  Cr14  1  0.660355  0.000000  0.339645  1
  Cr  Cr15  1  0.000000  0.339645  0.000000  1
  Cr  Cr16  1  0.000000  0.000000  0.660355  1
  Cr  Cr17  1  0.000000  0.000000  0.339645  1
  Cr  Cr18  1  0.000000  0.660355  0.339645  1
  Cr  Cr19  1  0.339645  0.000000  0.660355  1
  Cr  Cr20  1  0.000000  0.660355  0.000000  1
  Cr  Cr21  1  0.339645  0.000000  0.000000  1
  Cr  Cr22  1  0.339645  0.660355  0.000000  1
  Cr  Cr23  1  0.143736  0.618755  0.618755  1
  Cr  Cr24  1  0.618755  0.618755  0.143736  1
  Cr  Cr25  1  0.381245  0.381245  0.381245  1
  Cr  Cr26  1  0.750000  0.750000  0.750000  1
  Cr  Cr27  1  0.250000  0.250000  0.250000  1
  Cr  Cr28  1  0.000000  0.000000  0.000000  1
