# generated using pymatgen
data_MoO2
_symmetry_space_group_name_H-M   'P 1'
_cell_length_a   6.45496705
_cell_length_b   6.31534174
_cell_length_c   6.29371263
_cell_angle_alpha   59.95114390
_cell_angle_beta   89.97456382
_cell_angle_gamma   119.65873214
_symmetry_Int_Tables_number   1
_chemical_formula_structural   MoO2
_chemical_formula_sum   'Mo4 O8'
_cell_volume   182.17601395
_cell_formula_units_Z   4
loop_
 _symmetry_equiv_pos_site_id
 _symmetry_equiv_pos_as_xyz
  1  'x, y, z'
loop_
 _atom_site_type_symbol
 _atom_site_label
 _atom_site_symmetry_multiplicity
 _atom_site_fract_x
 _atom_site_fract_y
 _atom_site_fract_z
 _atom_site_occupancy
  Mo  Mo0  1  0.498036  -0.004016  0.503033  1
  Mo  Mo1  1  0.499591  0.500533  0.498436  1
  Mo  Mo2  1  0.000574  0.501034  0.497739  1
  Mo  Mo3  1  0.501643  0.003024  -0.000509  1
  O  O4  1  0.713498  0.451343  0.312336  1
  O  O5  1  0.716303  0.437183  0.755302  1
  O  O6  1  0.283772  0.544217  0.690100  1
  O  O7  1  0.286103  0.978403  0.258186  1
  O  O8  1  0.286197  0.565796  0.241685  1
  O  O9  1  0.695663  -0.038953  0.260004  1
  O  O10  1  0.714792  0.022235  0.741039  1
  O  O11  1  0.303832  0.039207  0.742649  1
