# generated using pymatgen
data_Sc5Si3
_symmetry_space_group_name_H-M   'P 1'
_cell_length_a   7.89827882
_cell_length_b   7.89827882
_cell_length_c   5.83173029
_cell_angle_alpha   90.00000000
_cell_angle_beta   90.00000000
_cell_angle_gamma   119.99999998
_symmetry_Int_Tables_number   1
_chemical_formula_structural   Sc5Si3
_chemical_formula_sum   'Sc10 Si6'
_cell_volume   315.05979348
_cell_formula_units_Z   2
loop_
 _symmetry_equiv_pos_site_id
 _symmetry_equiv_pos_as_xyz
  1  'x, y, z'
loop_
 _atom_site_type_symbol
 _atom_site_label
 _atom_site_symmetry_multiplicity
 _atom_site_fract_x
 _atom_site_fract_y
 _atom_site_fract_z
 _atom_site_occupancy
  Si  Si0  1  0.395130  0.000000  0.750000  1
  Si  Si1  1  0.395130  0.395130  0.250000  1
  Si  Si2  1  0.000000  0.604870  0.250000  1
  Si  Si3  1  0.000000  0.395130  0.750000  1
  Si  Si4  1  0.604870  0.604870  0.750000  1
  Si  Si5  1  0.604870  0.000000  0.250000  1
  Sc  Sc6  1  0.000000  0.758595  0.750000  1
  Sc  Sc7  1  0.000000  0.241405  0.250000  1
  Sc  Sc8  1  0.758595  0.758595  0.250000  1
  Sc  Sc9  1  0.758595  0.000000  0.750000  1
  Sc  Sc10  1  0.241405  0.241405  0.750000  1
  Sc  Sc11  1  0.241405  0.000000  0.250000  1
  Sc  Sc12  1  0.333333  0.666667  0.500000  1
  Sc  Sc13  1  0.666667  0.333333  0.000000  1
  Sc  Sc14  1  0.666667  0.333333  0.500000  1
  Sc  Sc15  1  0.333333  0.666667  0.000000  1
