# generated using pymatgen
data_CaSb2
_symmetry_space_group_name_H-M   'P 1'
_cell_length_a   4.33008337
_cell_length_b   4.68104840
_cell_length_c   8.90778485
_cell_angle_alpha   105.63616107
_cell_angle_beta   90.00000000
_cell_angle_gamma   90.00000000
_symmetry_Int_Tables_number   1
_chemical_formula_structural   CaSb2
_chemical_formula_sum   'Ca2 Sb4'
_cell_volume   173.87297376
_cell_formula_units_Z   2
loop_
 _symmetry_equiv_pos_site_id
 _symmetry_equiv_pos_as_xyz
  1  'x, y, z'
loop_
 _atom_site_type_symbol
 _atom_site_label
 _atom_site_symmetry_multiplicity
 _atom_site_fract_x
 _atom_site_fract_y
 _atom_site_fract_z
 _atom_site_occupancy
  Ca  Ca0  1  0.250000  0.875495  0.293219  1
  Ca  Ca1  1  0.750000  0.124505  0.706781  1
  Sb  Sb2  1  0.250000  0.229281  0.017830  1
  Sb  Sb3  1  0.750000  0.770719  0.982170  1
  Sb  Sb4  1  0.250000  0.579933  0.621716  1
  Sb  Sb5  1  0.750000  0.420067  0.378284  1
