# generated using pymatgen
data_AgAu3
_symmetry_space_group_name_H-M   'P 1'
_cell_length_a   4.17010803
_cell_length_b   4.17010802
_cell_length_c   4.17042420
_cell_angle_alpha   90.00002940
_cell_angle_beta   90.00002212
_cell_angle_gamma   89.99999299
_symmetry_Int_Tables_number   1
_chemical_formula_structural   AgAu3
_chemical_formula_sum   'Ag1 Au3'
_cell_volume   72.52284667
_cell_formula_units_Z   1
loop_
 _symmetry_equiv_pos_site_id
 _symmetry_equiv_pos_as_xyz
  1  'x, y, z'
loop_
 _atom_site_type_symbol
 _atom_site_label
 _atom_site_symmetry_multiplicity
 _atom_site_fract_x
 _atom_site_fract_y
 _atom_site_fract_z
 _atom_site_occupancy
  Ag  Ag0  1  1.000000  0.000000  1.000000  1
  Au  Au1  1  0.000000  0.500000  0.500000  1
  Au  Au2  1  0.500000  0.000000  0.500000  1
  Au  Au3  1  0.500000  0.500000  1.000000  1
