# generated using pymatgen
data_BMo
_symmetry_space_group_name_H-M   'P 1'
_cell_length_a   3.09346998
_cell_length_b   3.16646099
_cell_length_c   4.55774389
_cell_angle_alpha   110.32663048
_cell_angle_beta   90.00000000
_cell_angle_gamma   90.00000000
_symmetry_Int_Tables_number   1
_chemical_formula_structural   BMo
_chemical_formula_sum   'B2 Mo2'
_cell_volume   41.86457195
_cell_formula_units_Z   2
loop_
 _symmetry_equiv_pos_site_id
 _symmetry_equiv_pos_as_xyz
  1  'x, y, z'
loop_
 _atom_site_type_symbol
 _atom_site_label
 _atom_site_symmetry_multiplicity
 _atom_site_fract_x
 _atom_site_fract_y
 _atom_site_fract_z
 _atom_site_occupancy
  B  B0  1  0.250000  0.440508  0.881016  1
  B  B1  1  0.750000  0.559492  0.118984  1
  Mo  Mo2  1  0.250000  0.144248  0.288496  1
  Mo  Mo3  1  0.750000  0.855752  0.711504  1
