# generated using pymatgen
data_NiO2
_symmetry_space_group_name_H-M   'P 1'
_cell_length_a   2.82528622
_cell_length_b   4.86443035
_cell_length_c   9.17019666
_cell_angle_alpha   90.00000000
_cell_angle_beta   90.00000000
_cell_angle_gamma   106.88206961
_symmetry_Int_Tables_number   1
_chemical_formula_structural   NiO2
_chemical_formula_sum   'Ni4 O8'
_cell_volume   120.59844056
_cell_formula_units_Z   4
loop_
 _symmetry_equiv_pos_site_id
 _symmetry_equiv_pos_as_xyz
  1  'x, y, z'
loop_
 _atom_site_type_symbol
 _atom_site_label
 _atom_site_symmetry_multiplicity
 _atom_site_fract_x
 _atom_site_fract_y
 _atom_site_fract_z
 _atom_site_occupancy
  Ni  Ni0  1  0.865593  0.731187  0.070965  1
  Ni  Ni1  1  0.134407  0.268813  0.929035  1
  Ni  Ni2  1  0.865593  0.731187  0.429035  1
  Ni  Ni3  1  0.134407  0.268813  0.570965  1
  O  O4  1  0.236004  0.472008  0.389100  1
  O  O5  1  0.763996  0.527992  0.610900  1
  O  O6  1  0.763996  0.527992  0.889100  1
  O  O7  1  0.236004  0.472008  0.110900  1
  O  O8  1  0.954912  0.909825  0.250000  1
  O  O9  1  0.045088  0.090175  0.750000  1
  O  O10  1  0.500000  0.000000  0.000000  1
  O  O11  1  0.500000  0.000000  0.500000  1
