# generated using pymatgen
data_Sc2Si2Ru
_symmetry_space_group_name_H-M   'P 1'
_cell_length_a   4.08872168
_cell_length_b   5.44749745
_cell_length_c   8.66046977
_cell_angle_alpha   81.36780120
_cell_angle_beta   76.34608757
_cell_angle_gamma   67.95810803
_symmetry_Int_Tables_number   1
_chemical_formula_structural   Sc2Si2Ru
_chemical_formula_sum   'Sc4 Si4 Ru2'
_cell_volume   173.33985871
_cell_formula_units_Z   2
loop_
 _symmetry_equiv_pos_site_id
 _symmetry_equiv_pos_as_xyz
  1  'x, y, z'
loop_
 _atom_site_type_symbol
 _atom_site_label
 _atom_site_symmetry_multiplicity
 _atom_site_fract_x
 _atom_site_fract_y
 _atom_site_fract_z
 _atom_site_occupancy
  Si  Si0  1  0.488158  0.145343  0.878342  1
  Si  Si1  1  0.360631  0.713913  0.564825  1
  Si  Si2  1  0.511842  0.854657  0.121658  1
  Si  Si3  1  0.639369  0.286087  0.435175  1
  Sc  Sc4  1  0.817437  0.257647  0.107478  1
  Sc  Sc5  1  0.004684  0.667498  0.323135  1
  Sc  Sc6  1  0.182563  0.742353  0.892522  1
  Sc  Sc7  1  0.995316  0.332502  0.676865  1
  Ru  Ru8  1  0.729802  0.910867  0.629528  1
  Ru  Ru9  1  0.270198  0.089133  0.370472  1
