# generated using pymatgen
data_Hf5Si3
_symmetry_space_group_name_H-M   'P 1'
_cell_length_a   7.88998159
_cell_length_b   7.88998159
_cell_length_c   5.51148452
_cell_angle_alpha   90.00000000
_cell_angle_beta   90.00000000
_cell_angle_gamma   120.00000004
_symmetry_Int_Tables_number   1
_chemical_formula_structural   Hf5Si3
_chemical_formula_sum   'Hf10 Si6'
_cell_volume   297.13321578
_cell_formula_units_Z   2
loop_
 _symmetry_equiv_pos_site_id
 _symmetry_equiv_pos_as_xyz
  1  'x, y, z'
loop_
 _atom_site_type_symbol
 _atom_site_label
 _atom_site_symmetry_multiplicity
 _atom_site_fract_x
 _atom_site_fract_y
 _atom_site_fract_z
 _atom_site_occupancy
  Si  Si0  1  0.390645  0.000000  0.750000  1
  Si  Si1  1  0.390645  0.390645  0.250000  1
  Si  Si2  1  0.000000  0.609355  0.250000  1
  Si  Si3  1  0.000000  0.390645  0.750000  1
  Si  Si4  1  0.609355  0.609355  0.750000  1
  Si  Si5  1  0.609355  0.000000  0.250000  1
  Hf  Hf6  1  0.000000  0.747030  0.750000  1
  Hf  Hf7  1  0.000000  0.252970  0.250000  1
  Hf  Hf8  1  0.747030  0.747030  0.250000  1
  Hf  Hf9  1  0.747030  0.000000  0.750000  1
  Hf  Hf10  1  0.252970  0.252970  0.750000  1
  Hf  Hf11  1  0.252970  0.000000  0.250000  1
  Hf  Hf12  1  0.333333  0.666667  0.500000  1
  Hf  Hf13  1  0.666667  0.333333  0.000000  1
  Hf  Hf14  1  0.666667  0.333333  0.500000  1
  Hf  Hf15  1  0.333333  0.666667  0.000000  1
