# generated using pymatgen
data_ZrO2
_symmetry_space_group_name_H-M   'P 1'
_cell_length_a   5.14991256
_cell_length_b   5.14975594
_cell_length_c   5.14986589
_cell_angle_alpha   90.00000000
_cell_angle_beta   90.01372618
_cell_angle_gamma   90.00000000
_symmetry_Int_Tables_number   1
_chemical_formula_structural   ZrO2
_chemical_formula_sum   'Zr4 O8'
_cell_volume   136.57852241
_cell_formula_units_Z   4
loop_
 _symmetry_equiv_pos_site_id
 _symmetry_equiv_pos_as_xyz
  1  'x, y, z'
loop_
 _atom_site_type_symbol
 _atom_site_label
 _atom_site_symmetry_multiplicity
 _atom_site_fract_x
 _atom_site_fract_y
 _atom_site_fract_z
 _atom_site_occupancy
  O  O0  1  0.250041  0.250033  0.249995  1
  O  O1  1  0.749959  0.750033  0.250005  1
  O  O2  1  0.749959  0.749967  0.750005  1
  O  O3  1  0.250041  0.249967  0.749995  1
  O  O4  1  0.249959  0.749963  0.250066  1
  O  O5  1  0.750041  0.249963  0.249934  1
  O  O6  1  0.750041  0.250037  0.749934  1
  O  O7  1  0.249959  0.750037  0.750066  1
  Zr  Zr8  1  0.000000  0.000000  0.000000  1
  Zr  Zr9  1  0.000000  0.500000  0.500000  1
  Zr  Zr10  1  0.500000  0.000000  0.500000  1
  Zr  Zr11  1  0.500000  0.500000  0.000000  1
