# generated using pymatgen
data_C
_symmetry_space_group_name_H-M   'P 1'
_cell_length_a   3.87997082
_cell_length_b   3.87997028
_cell_length_c   3.87997085
_cell_angle_alpha   37.08140755
_cell_angle_beta   37.08141800
_cell_angle_gamma   37.08141709
_symmetry_Int_Tables_number   1
_chemical_formula_structural   C
_chemical_formula_sum   C2
_cell_volume   19.02943266
_cell_formula_units_Z   2
loop_
 _symmetry_equiv_pos_site_id
 _symmetry_equiv_pos_as_xyz
  1  'x, y, z'
loop_
 _atom_site_type_symbol
 _atom_site_label
 _atom_site_symmetry_multiplicity
 _atom_site_fract_x
 _atom_site_fract_y
 _atom_site_fract_z
 _atom_site_occupancy
  C  C0  1  0.833341  0.833341  0.833341  1
  C  C1  1  0.166659  0.166659  0.166659  1
