# generated using pymatgen
data_KO2
_symmetry_space_group_name_H-M   'P 1'
_cell_length_a   3.93451381
_cell_length_b   3.99401697
_cell_length_c   6.77326809
_cell_angle_alpha   90.00000000
_cell_angle_beta   90.00000000
_cell_angle_gamma   90.00000000
_symmetry_Int_Tables_number   1
_chemical_formula_structural   KO2
_chemical_formula_sum   'K2 O4'
_cell_volume   106.43862250
_cell_formula_units_Z   2
loop_
 _symmetry_equiv_pos_site_id
 _symmetry_equiv_pos_as_xyz
  1  'x, y, z'
loop_
 _atom_site_type_symbol
 _atom_site_label
 _atom_site_symmetry_multiplicity
 _atom_site_fract_x
 _atom_site_fract_y
 _atom_site_fract_z
 _atom_site_occupancy
  K  K0  1  0.500000  0.500000  0.500000  1
  K  K1  1  0.000000  -0.000000  0.000000  1
  O  O2  1  0.500000  0.489479  0.900168  1
  O  O3  1  0.500000  0.510521  0.099832  1
  O  O4  1  0.000000  0.010521  0.400168  1
  O  O5  1  0.000000  0.989479  0.599832  1
