# generated using pymatgen
data_Fe3N
_symmetry_space_group_name_H-M   'P 1'
_cell_length_a   4.65827495
_cell_length_b   4.65827494
_cell_length_c   4.32158233
_cell_angle_alpha   90.00000000
_cell_angle_beta   90.00000000
_cell_angle_gamma   119.99999997
_symmetry_Int_Tables_number   1
_chemical_formula_structural   Fe3N
_chemical_formula_sum   'Fe6 N2'
_cell_volume   81.21264587
_cell_formula_units_Z   2
loop_
 _symmetry_equiv_pos_site_id
 _symmetry_equiv_pos_as_xyz
  1  'x, y, z'
loop_
 _atom_site_type_symbol
 _atom_site_label
 _atom_site_symmetry_multiplicity
 _atom_site_fract_x
 _atom_site_fract_y
 _atom_site_fract_z
 _atom_site_occupancy
  N  N0  1  0.666667  0.333333  0.750000  1
  N  N1  1  0.333333  0.666667  0.250000  1
  Fe  Fe2  1  0.000000  0.673282  0.500000  1
  Fe  Fe3  1  0.000000  0.326718  0.000000  1
  Fe  Fe4  1  0.673282  0.673282  0.000000  1
  Fe  Fe5  1  0.673282  0.000000  0.500000  1
  Fe  Fe6  1  0.326718  0.326718  0.500000  1
  Fe  Fe7  1  0.326718  0.000000  0.000000  1
