# generated using pymatgen
data_Tl2O3
_symmetry_space_group_name_H-M   'P 1'
_cell_length_a   9.32591376
_cell_length_b   9.32591375
_cell_length_c   9.32591375
_cell_angle_alpha   109.47122066
_cell_angle_beta   109.47122064
_cell_angle_gamma   109.47122061
_symmetry_Int_Tables_number   1
_chemical_formula_structural   Tl2O3
_chemical_formula_sum   'Tl16 O24'
_cell_volume   624.38475858
_cell_formula_units_Z   8
loop_
 _symmetry_equiv_pos_site_id
 _symmetry_equiv_pos_as_xyz
  1  'x, y, z'
loop_
 _atom_site_type_symbol
 _atom_site_label
 _atom_site_symmetry_multiplicity
 _atom_site_fract_x
 _atom_site_fract_y
 _atom_site_fract_z
 _atom_site_occupancy
  O  O0  1  0.537663  0.771447  0.542152  1
  O  O1  1  0.995511  0.957848  0.729295  1
  O  O2  1  0.266216  0.770705  0.728553  1
  O  O3  1  0.504489  0.233784  0.962337  1
  O  O4  1  0.957848  0.729295  0.995511  1
  O  O5  1  0.728553  0.266216  0.770705  1
  O  O6  1  0.233784  0.962337  0.504489  1
  O  O7  1  0.542152  0.537663  0.771447  1
  O  O8  1  0.771447  0.542152  0.537663  1
  O  O9  1  0.729295  0.995511  0.957848  1
  O  O10  1  0.770705  0.728553  0.266216  1
  O  O11  1  0.962337  0.504489  0.233784  1
  O  O12  1  0.462337  0.228553  0.457848  1
  O  O13  1  0.004489  0.042152  0.270705  1
  O  O14  1  0.733784  0.229295  0.271447  1
  O  O15  1  0.495511  0.766216  0.037663  1
  O  O16  1  0.042152  0.270705  0.004489  1
  O  O17  1  0.271447  0.733784  0.229295  1
  O  O18  1  0.766216  0.037663  0.495511  1
  O  O19  1  0.457848  0.462337  0.228553  1
  O  O20  1  0.228553  0.457848  0.462337  1
  O  O21  1  0.270705  0.004489  0.042152  1
  O  O22  1  0.229295  0.271447  0.733784  1
  O  O23  1  0.037663  0.495511  0.766216  1
  Tl  Tl24  1  0.500000  0.500000  0.500000  1
  Tl  Tl25  1  0.000000  0.000000  0.500000  1
  Tl  Tl26  1  0.500000  0.000000  0.000000  1
  Tl  Tl27  1  0.000000  0.500000  0.000000  1
  Tl  Tl28  1  0.250000  0.216797  0.966797  1
  Tl  Tl29  1  0.283203  0.533203  0.750000  1
  Tl  Tl30  1  0.533203  0.750000  0.283203  1
  Tl  Tl31  1  0.216797  0.966797  0.250000  1
  Tl  Tl32  1  0.966797  0.250000  0.216797  1
  Tl  Tl33  1  0.750000  0.283203  0.533203  1
  Tl  Tl34  1  0.750000  0.783203  0.033203  1
  Tl  Tl35  1  0.716797  0.466797  0.250000  1
  Tl  Tl36  1  0.466797  0.250000  0.716797  1
  Tl  Tl37  1  0.783203  0.033203  0.750000  1
  Tl  Tl38  1  0.033203  0.750000  0.783203  1
  Tl  Tl39  1  0.250000  0.716797  0.466797  1
