# generated using pymatgen
data_Sr2Mn3(AsO)2
_symmetry_space_group_name_H-M   'P 1'
_cell_length_a   4.24379554
_cell_length_b   4.24379554
_cell_length_c   10.12752325
_cell_angle_alpha   102.09410362
_cell_angle_beta   102.09410363
_cell_angle_gamma   89.99999999
_symmetry_Int_Tables_number   1
_chemical_formula_structural   Sr2Mn3(AsO)2
_chemical_formula_sum   'Sr2 Mn3 As2 O2'
_cell_volume   174.20405159
_cell_formula_units_Z   1
loop_
 _symmetry_equiv_pos_site_id
 _symmetry_equiv_pos_as_xyz
  1  'x, y, z'
loop_
 _atom_site_type_symbol
 _atom_site_label
 _atom_site_symmetry_multiplicity
 _atom_site_fract_x
 _atom_site_fract_y
 _atom_site_fract_z
 _atom_site_occupancy
  O  O0  1  0.000001  0.500000  0.000000  1
  O  O1  1  0.499999  1.000000  0.000000  1
  Mn  Mn2  1  0.000000  0.000000  0.000000  1
  Mn  Mn3  1  0.750000  0.249999  0.500000  1
  Mn  Mn4  1  0.249999  0.749999  0.500000  1
  As  As5  1  0.165040  0.165041  0.330081  1
  As  As6  1  0.834960  0.834960  0.669919  1
  Sr  Sr7  1  0.584582  0.584582  0.169163  1
  Sr  Sr8  1  0.415418  0.415419  0.830837  1
