# generated using pymatgen
data_MgWO4
_symmetry_space_group_name_H-M   'P 1'
_cell_length_a   4.74247142
_cell_length_b   5.04425302
_cell_length_c   5.75150792
_cell_angle_alpha   90.00000000
_cell_angle_beta   90.00000000
_cell_angle_gamma   91.18339299
_symmetry_Int_Tables_number   1
_chemical_formula_structural   MgWO4
_chemical_formula_sum   'Mg2 W2 O8'
_cell_volume   137.55952480
_cell_formula_units_Z   2
loop_
 _symmetry_equiv_pos_site_id
 _symmetry_equiv_pos_as_xyz
  1  'x, y, z'
loop_
 _atom_site_type_symbol
 _atom_site_label
 _atom_site_symmetry_multiplicity
 _atom_site_fract_x
 _atom_site_fract_y
 _atom_site_fract_z
 _atom_site_occupancy
  O  O0  1  0.740835  0.100392  0.375628  1
  O  O1  1  0.259165  0.399608  0.375628  1
  O  O2  1  0.259165  0.899608  0.624372  1
  O  O3  1  0.740835  0.600392  0.624372  1
  O  O4  1  0.783916  0.066808  0.890809  1
  O  O5  1  0.216084  0.433192  0.890809  1
  O  O6  1  0.216084  0.933192  0.109191  1
  O  O7  1  0.783916  0.566808  0.109191  1
  Mg  Mg8  1  0.500000  0.750000  0.334573  1
  Mg  Mg9  1  0.500000  0.250000  0.665427  1
  W  W10  1  0.000000  0.750000  0.824769  1
  W  W11  1  0.000000  0.250000  0.175231  1
