# generated using pymatgen
data_SeO3
_symmetry_space_group_name_H-M   'P 1'
_cell_length_a   5.55221848
_cell_length_b   10.09495780
_cell_length_c   10.09495780
_cell_angle_alpha   90.00000000
_cell_angle_beta   90.00000000
_cell_angle_gamma   90.00000000
_symmetry_Int_Tables_number   1
_chemical_formula_structural   SeO3
_chemical_formula_sum   'Se8 O24'
_cell_volume   565.81644130
_cell_formula_units_Z   8
loop_
 _symmetry_equiv_pos_site_id
 _symmetry_equiv_pos_as_xyz
  1  'x, y, z'
loop_
 _atom_site_type_symbol
 _atom_site_label
 _atom_site_symmetry_multiplicity
 _atom_site_fract_x
 _atom_site_fract_y
 _atom_site_fract_z
 _atom_site_occupancy
  O  O0  1  0.805866  0.594535  0.740347  1
  O  O1  1  0.805866  0.405465  0.259653  1
  O  O2  1  0.194134  0.259653  0.594535  1
  O  O3  1  0.194134  0.740347  0.405465  1
  O  O4  1  0.305866  0.759653  0.905465  1
  O  O5  1  0.694134  0.905465  0.240347  1
  O  O6  1  0.694134  0.094535  0.759653  1
  O  O7  1  0.305866  0.240347  0.094535  1
  O  O8  1  0.845934  0.117199  0.101366  1
  O  O9  1  0.154066  0.101366  0.882801  1
  O  O10  1  0.154066  0.898634  0.117199  1
  O  O11  1  0.845934  0.882801  0.898634  1
  O  O12  1  0.654066  0.617199  0.398634  1
  O  O13  1  0.654066  0.382801  0.601366  1
  O  O14  1  0.345934  0.398634  0.382801  1
  O  O15  1  0.345934  0.601366  0.617199  1
  O  O16  1  0.895429  0.335515  0.947160  1
  O  O17  1  0.104571  0.947160  0.664485  1
  O  O18  1  0.104571  0.052840  0.335515  1
  O  O19  1  0.895429  0.664485  0.052840  1
  O  O20  1  0.604571  0.835515  0.552840  1
  O  O21  1  0.604571  0.164485  0.447159  1
  O  O22  1  0.395429  0.552840  0.164485  1
  O  O23  1  0.395429  0.447159  0.835515  1
  Se  Se24  1  0.560834  0.510896  0.721199  1
  Se  Se25  1  0.560834  0.489104  0.278801  1
  Se  Se26  1  0.439166  0.278801  0.510896  1
  Se  Se27  1  0.439166  0.721199  0.489104  1
  Se  Se28  1  0.060834  0.778801  0.989104  1
  Se  Se29  1  0.939166  0.989104  0.221199  1
  Se  Se30  1  0.939166  0.010896  0.778801  1
  Se  Se31  1  0.060834  0.221199  0.010896  1
