# generated using pymatgen
data_In2S3
_symmetry_space_group_name_H-M   'P 1'
_cell_length_a   7.76641264
_cell_length_b   7.76641264
_cell_length_c   17.33046547
_cell_angle_alpha   102.94809142
_cell_angle_beta   102.94809143
_cell_angle_gamma   90.00000002
_symmetry_Int_Tables_number   1
_chemical_formula_structural   In2S3
_chemical_formula_sum   'In16 S24'
_cell_volume   991.45431282
_cell_formula_units_Z   8
loop_
 _symmetry_equiv_pos_site_id
 _symmetry_equiv_pos_as_xyz
  1  'x, y, z'
loop_
 _atom_site_type_symbol
 _atom_site_label
 _atom_site_symmetry_multiplicity
 _atom_site_fract_x
 _atom_site_fract_y
 _atom_site_fract_z
 _atom_site_occupancy
  S  S0  1  0.935505  0.413004  0.826008  1
  S  S1  1  0.086996  0.109497  0.673992  1
  S  S2  1  0.086996  0.564495  0.673992  1
  S  S3  1  0.609497  0.586996  0.173992  1
  S  S4  1  0.064495  0.586996  0.173992  1
  S  S5  1  0.913004  0.435505  0.326008  1
  S  S6  1  0.913004  0.890503  0.326008  1
  S  S7  1  0.390503  0.413004  0.826008  1
  S  S8  1  0.590842  0.077796  0.155592  1
  S  S9  1  0.422204  0.435249  0.344408  1
  S  S10  1  0.422204  0.909158  0.344408  1
  S  S11  1  0.935249  0.922204  0.844408  1
  S  S12  1  0.409158  0.922204  0.844408  1
  S  S13  1  0.577796  0.090842  0.655592  1
  S  S14  1  0.577796  0.564751  0.655592  1
  S  S15  1  0.064751  0.077796  0.155592  1
  S  S16  1  0.258343  0.250689  0.501377  1
  S  S17  1  0.750689  0.758343  0.001377  1
  S  S18  1  0.750689  0.243034  0.001377  1
  S  S19  1  0.256966  0.749311  0.498623  1
  S  S20  1  0.741657  0.749311  0.498623  1
  S  S21  1  0.249311  0.756966  0.998623  1
  S  S22  1  0.249311  0.241657  0.998623  1
  S  S23  1  0.743034  0.250689  0.501377  1
  In  In24  1  0.295228  0.545228  0.090457  1
  In  In25  1  0.045228  0.795228  0.590457  1
  In  In26  1  0.704772  0.454772  0.909543  1
  In  In27  1  0.954772  0.204772  0.409543  1
  In  In28  1  0.813980  0.332189  0.664379  1
  In  In29  1  0.167811  0.149601  0.835621  1
  In  In30  1  0.167811  0.686020  0.835621  1
  In  In31  1  0.649601  0.667811  0.335621  1
  In  In32  1  0.186020  0.667811  0.335621  1
  In  In33  1  0.832189  0.313980  0.164379  1
  In  In34  1  0.832189  0.850399  0.164379  1
  In  In35  1  0.350399  0.332189  0.664379  1
  In  In36  1  0.500000  0.000000  0.000000  1
  In  In37  1  0.500000  0.000000  0.500000  1
  In  In38  1  0.500000  0.500000  0.500000  1
  In  In39  1  0.000000  0.000000  0.000000  1
