# generated using pymatgen
data_Si12Ni31
_symmetry_space_group_name_H-M   'P 1'
_cell_length_a   6.65166479
_cell_length_b   6.65166478
_cell_length_c   12.28560124
_cell_angle_alpha   90.00000000
_cell_angle_beta   90.00000000
_cell_angle_gamma   119.99999999
_symmetry_Int_Tables_number   1
_chemical_formula_structural   Si12Ni31
_chemical_formula_sum   'Si12 Ni31'
_cell_volume   470.74721148
_cell_formula_units_Z   1
loop_
 _symmetry_equiv_pos_site_id
 _symmetry_equiv_pos_as_xyz
  1  'x, y, z'
loop_
 _atom_site_type_symbol
 _atom_site_label
 _atom_site_symmetry_multiplicity
 _atom_site_fract_x
 _atom_site_fract_y
 _atom_site_fract_z
 _atom_site_occupancy
  Si  Si0  1  0.648994  0.648994  0.500000  1
  Si  Si1  1  0.000000  0.351006  0.500000  1
  Si  Si2  1  0.351006  0.000000  0.500000  1
  Si  Si3  1  0.318725  0.318725  0.000000  1
  Si  Si4  1  0.000000  0.681275  0.000000  1
  Si  Si5  1  0.681275  0.000000  0.000000  1
  Si  Si6  1  0.666667  0.333333  0.226468  1
  Si  Si7  1  0.333333  0.666667  0.773532  1
  Si  Si8  1  0.666667  0.333333  0.724575  1
  Si  Si9  1  0.333333  0.666667  0.275425  1
  Si  Si10  1  0.000000  0.000000  0.707946  1
  Si  Si11  1  0.000000  0.000000  0.292054  1
  Ni  Ni12  1  0.079318  0.412412  0.904620  1
  Ni  Ni13  1  0.664898  0.962401  0.197641  1
  Ni  Ni14  1  0.037599  0.702497  0.197641  1
  Ni  Ni15  1  0.297503  0.335102  0.197641  1
  Ni  Ni16  1  0.702497  0.037599  0.802359  1
  Ni  Ni17  1  0.335102  0.297503  0.802359  1
  Ni  Ni18  1  0.962401  0.664898  0.802359  1
  Ni  Ni19  1  0.357419  0.034697  0.305235  1
  Ni  Ni20  1  0.965303  0.322722  0.305235  1
  Ni  Ni21  1  0.677278  0.642581  0.305235  1
  Ni  Ni22  1  0.322722  0.965303  0.694765  1
  Ni  Ni23  1  0.642581  0.677278  0.694765  1
  Ni  Ni24  1  0.034697  0.357419  0.694765  1
  Ni  Ni25  1  0.629223  0.937332  0.403807  1
  Ni  Ni26  1  0.062668  0.691891  0.403807  1
  Ni  Ni27  1  0.308109  0.370777  0.403807  1
  Ni  Ni28  1  0.691891  0.062668  0.596193  1
  Ni  Ni29  1  0.370777  0.308109  0.596193  1
  Ni  Ni30  1  0.937332  0.629223  0.596193  1
  Ni  Ni31  1  0.587588  0.666906  0.904620  1
  Ni  Ni32  1  0.333094  0.920682  0.904620  1
  Ni  Ni33  1  0.666906  0.587588  0.095380  1
  Ni  Ni34  1  0.920682  0.333094  0.095380  1
  Ni  Ni35  1  0.412412  0.079318  0.095380  1
  Ni  Ni36  1  0.666667  0.333333  0.432850  1
  Ni  Ni37  1  0.333333  0.666667  0.567150  1
  Ni  Ni38  1  0.666667  0.333333  0.927047  1
  Ni  Ni39  1  0.333333  0.666667  0.072953  1
  Ni  Ni40  1  0.000000  0.000000  0.903035  1
  Ni  Ni41  1  0.000000  0.000000  0.096965  1
  Ni  Ni42  1  0.000000  0.000000  0.500000  1
