# generated using pymatgen
data_Sb2Ru
_symmetry_space_group_name_H-M   'P 1'
_cell_length_a   3.22646497
_cell_length_b   6.02627758
_cell_length_c   6.75208362
_cell_angle_alpha   90.00000000
_cell_angle_beta   90.00000000
_cell_angle_gamma   90.00000000
_symmetry_Int_Tables_number   1
_chemical_formula_structural   Sb2Ru
_chemical_formula_sum   'Sb4 Ru2'
_cell_volume   131.28463422
_cell_formula_units_Z   2
loop_
 _symmetry_equiv_pos_site_id
 _symmetry_equiv_pos_as_xyz
  1  'x, y, z'
loop_
 _atom_site_type_symbol
 _atom_site_label
 _atom_site_symmetry_multiplicity
 _atom_site_fract_x
 _atom_site_fract_y
 _atom_site_fract_z
 _atom_site_occupancy
  Ru  Ru0  1  0.000000  0.000000  0.000000  1
  Ru  Ru1  1  0.500000  0.500000  0.500000  1
  Sb  Sb2  1  0.000000  0.182591  0.357433  1
  Sb  Sb3  1  0.000000  0.817409  0.642567  1
  Sb  Sb4  1  0.500000  0.682591  0.142567  1
  Sb  Sb5  1  0.500000  0.317409  0.857433  1
