# generated using pymatgen
data_LiMnO2
_symmetry_space_group_name_H-M   'P 1'
_cell_length_a   3.16425446
_cell_length_b   3.16411585
_cell_length_c   5.16776281
_cell_angle_alpha   94.47281433
_cell_angle_beta   85.52903574
_cell_angle_gamma   125.59327326
_symmetry_Int_Tables_number   1
_chemical_formula_structural   LiMnO2
_chemical_formula_sum   'Li1 Mn1 O2'
_cell_volume   41.91137313
_cell_formula_units_Z   1
loop_
 _symmetry_equiv_pos_site_id
 _symmetry_equiv_pos_as_xyz
  1  'x, y, z'
loop_
 _atom_site_type_symbol
 _atom_site_label
 _atom_site_symmetry_multiplicity
 _atom_site_fract_x
 _atom_site_fract_y
 _atom_site_fract_z
 _atom_site_occupancy
  Li  Li0  1  0.664564  0.335430  0.415963  1
  O  O1  1  0.359268  0.640751  0.214785  1
  O  O2  1  0.652946  0.346938  0.783994  1
  Mn  Mn3  1  0.989818  0.010180  0.976657  1
