# generated using pymatgen
data_Rb2PdBr6
_symmetry_space_group_name_H-M   'P 1'
_cell_length_a   7.56525812
_cell_length_b   7.56525823
_cell_length_c   7.56525796
_cell_angle_alpha   60.00000119
_cell_angle_beta   60.00000068
_cell_angle_gamma   60.00000096
_symmetry_Int_Tables_number   1
_chemical_formula_structural   Rb2PdBr6
_chemical_formula_sum   'Rb2 Pd1 Br6'
_cell_volume   306.16550604
_cell_formula_units_Z   1
loop_
 _symmetry_equiv_pos_site_id
 _symmetry_equiv_pos_as_xyz
  1  'x, y, z'
loop_
 _atom_site_type_symbol
 _atom_site_label
 _atom_site_symmetry_multiplicity
 _atom_site_fract_x
 _atom_site_fract_y
 _atom_site_fract_z
 _atom_site_occupancy
  Pd  Pd0  1  0.000000  0.000000  0.000000  1
  Rb  Rb1  1  0.250000  0.250000  0.250000  1
  Rb  Rb2  1  0.750000  0.750000  0.750000  1
  Br  Br3  1  0.764925  0.235075  0.235075  1
  Br  Br4  1  0.764925  0.764925  0.235075  1
  Br  Br5  1  0.235075  0.235075  0.764925  1
  Br  Br6  1  0.764925  0.235075  0.764925  1
  Br  Br7  1  0.235075  0.764925  0.235075  1
  Br  Br8  1  0.235075  0.764925  0.764925  1
