# generated using pymatgen
data_TiSi2
_symmetry_space_group_name_H-M   'P 1'
_cell_length_a   4.77455605
_cell_length_b   4.77455604
_cell_length_c   4.91280339
_cell_angle_alpha   104.24734956
_cell_angle_beta   104.24734961
_cell_angle_gamma   119.57292517
_symmetry_Int_Tables_number   1
_chemical_formula_structural   TiSi2
_chemical_formula_sum   'Ti2 Si4'
_cell_volume   84.96089447
_cell_formula_units_Z   2
loop_
 _symmetry_equiv_pos_site_id
 _symmetry_equiv_pos_as_xyz
  1  'x, y, z'
loop_
 _atom_site_type_symbol
 _atom_site_label
 _atom_site_symmetry_multiplicity
 _atom_site_fract_x
 _atom_site_fract_y
 _atom_site_fract_z
 _atom_site_occupancy
  Si  Si0  1  0.538258  0.461742  0.250000  1
  Si  Si1  1  0.211742  0.788258  0.250000  1
  Si  Si2  1  0.788258  0.211742  0.750000  1
  Si  Si3  1  0.461742  0.538258  0.750000  1
  Ti  Ti4  1  0.875000  0.125000  0.250000  1
  Ti  Ti5  1  0.125000  0.875000  0.750000  1
