# generated using pymatgen
data_VCoSi
_symmetry_space_group_name_H-M   'P 1'
_cell_length_a   3.55257657
_cell_length_b   5.96384374
_cell_length_c   6.83429564
_cell_angle_alpha   90.00000000
_cell_angle_beta   90.00000000
_cell_angle_gamma   90.00000000
_symmetry_Int_Tables_number   1
_chemical_formula_structural   VCoSi
_chemical_formula_sum   'V4 Co4 Si4'
_cell_volume   144.79830058
_cell_formula_units_Z   4
loop_
 _symmetry_equiv_pos_site_id
 _symmetry_equiv_pos_as_xyz
  1  'x, y, z'
loop_
 _atom_site_type_symbol
 _atom_site_label
 _atom_site_symmetry_multiplicity
 _atom_site_fract_x
 _atom_site_fract_y
 _atom_site_fract_z
 _atom_site_occupancy
  Si  Si0  1  0.250000  0.766963  0.376215  1
  Si  Si1  1  0.250000  0.266963  0.123785  1
  Si  Si2  1  0.750000  0.233037  0.623785  1
  Si  Si3  1  0.750000  0.733037  0.876215  1
  V  V4  1  0.750000  0.474995  0.321973  1
  V  V5  1  0.250000  0.025005  0.821973  1
  V  V6  1  0.750000  0.974995  0.178027  1
  V  V7  1  0.250000  0.525005  0.678027  1
  Co  Co8  1  0.250000  0.642819  0.060933  1
  Co  Co9  1  0.250000  0.142819  0.439067  1
  Co  Co10  1  0.750000  0.857181  0.560933  1
  Co  Co11  1  0.750000  0.357181  0.939067  1
