# generated using pymatgen
data_Rb2MnCl4
_symmetry_space_group_name_H-M   'P 1'
_cell_length_a   5.09238477
_cell_length_b   5.09238449
_cell_length_c   8.93660426
_cell_angle_alpha   106.56650160
_cell_angle_beta   106.56649906
_cell_angle_gamma   89.97209112
_symmetry_Int_Tables_number   1
_chemical_formula_structural   Rb2MnCl4
_chemical_formula_sum   'Rb2 Mn1 Cl4'
_cell_volume   212.08156739
_cell_formula_units_Z   1
loop_
 _symmetry_equiv_pos_site_id
 _symmetry_equiv_pos_as_xyz
  1  'x, y, z'
loop_
 _atom_site_type_symbol
 _atom_site_label
 _atom_site_symmetry_multiplicity
 _atom_site_fract_x
 _atom_site_fract_y
 _atom_site_fract_z
 _atom_site_occupancy
  Rb  Rb0  1  0.645485  0.645485  0.286053  1
  Rb  Rb1  1  0.354515  0.354515  0.713947  1
  Mn  Mn2  1  0.000000  0.000000  0.000000  1
  Cl  Cl3  1  0.500000  0.000000  0.000000  1
  Cl  Cl4  1  0.845323  0.845323  0.690058  1
  Cl  Cl5  1  0.000000  0.500000  0.000000  1
  Cl  Cl6  1  0.154677  0.154677  0.309942  1
