# generated using pymatgen
data_ZrAs2
_symmetry_space_group_name_H-M   'P 1'
_cell_length_a   3.72790240
_cell_length_b   6.86510270
_cell_length_c   9.15169895
_cell_angle_alpha   90.00000000
_cell_angle_beta   90.00000000
_cell_angle_gamma   90.00000000
_symmetry_Int_Tables_number   1
_chemical_formula_structural   ZrAs2
_chemical_formula_sum   'Zr4 As8'
_cell_volume   234.21424067
_cell_formula_units_Z   4
loop_
 _symmetry_equiv_pos_site_id
 _symmetry_equiv_pos_as_xyz
  1  'x, y, z'
loop_
 _atom_site_type_symbol
 _atom_site_label
 _atom_site_symmetry_multiplicity
 _atom_site_fract_x
 _atom_site_fract_y
 _atom_site_fract_z
 _atom_site_occupancy
  Zr  Zr0  1  0.750000  0.227017  0.161505  1
  Zr  Zr1  1  0.250000  0.772983  0.838495  1
  Zr  Zr2  1  0.750000  0.727017  0.338495  1
  Zr  Zr3  1  0.250000  0.272983  0.661505  1
  As  As4  1  0.750000  0.120251  0.457560  1
  As  As5  1  0.250000  0.879749  0.542440  1
  As  As6  1  0.750000  0.620251  0.042440  1
  As  As7  1  0.250000  0.379749  0.957560  1
  As  As8  1  0.750000  0.083017  0.851939  1
  As  As9  1  0.250000  0.916983  0.148061  1
  As  As10  1  0.750000  0.583017  0.648061  1
  As  As11  1  0.250000  0.416983  0.351939  1
