# generated using pymatgen
data_Zn(InSe2)2
_symmetry_space_group_name_H-M   'P 1'
_cell_length_a   5.87808948
_cell_length_b   5.87821573
_cell_length_c   7.09315919
_cell_angle_alpha   114.40841922
_cell_angle_beta   114.40758967
_cell_angle_gamma   90.06107083
_symmetry_Int_Tables_number   1
_chemical_formula_structural   Zn(InSe2)2
_chemical_formula_sum   'Zn1 In2 Se4'
_cell_volume   198.82546183
_cell_formula_units_Z   1
loop_
 _symmetry_equiv_pos_site_id
 _symmetry_equiv_pos_as_xyz
  1  'x, y, z'
loop_
 _atom_site_type_symbol
 _atom_site_label
 _atom_site_symmetry_multiplicity
 _atom_site_fract_x
 _atom_site_fract_y
 _atom_site_fract_z
 _atom_site_occupancy
  In  In0  1  0.999957  0.001515  0.999862  1
  In  In1  1  0.501529  0.499960  0.999853  1
  Se  Se2  1  0.098326  0.598318  0.718743  1
  Se  Se3  1  0.402444  0.381232  0.283084  1
  Se  Se4  1  0.618031  0.118021  0.716087  1
  Se  Se5  1  0.881219  0.902448  0.283093  1
  Zn  Zn6  1  0.248495  0.748505  0.499277  1
