# generated using pymatgen
data_Si3W5
_symmetry_space_group_name_H-M   'P 1'
_cell_length_a   4.99084725
_cell_length_b   7.28391905
_cell_length_c   7.28391905
_cell_angle_alpha   83.25963869
_cell_angle_beta   69.96503434
_cell_angle_gamma   69.96503433
_symmetry_Int_Tables_number   1
_chemical_formula_structural   Si3W5
_chemical_formula_sum   'Si6 W10'
_cell_volume   233.71308025
_cell_formula_units_Z   2
loop_
 _symmetry_equiv_pos_site_id
 _symmetry_equiv_pos_as_xyz
  1  'x, y, z'
loop_
 _atom_site_type_symbol
 _atom_site_label
 _atom_site_symmetry_multiplicity
 _atom_site_fract_x
 _atom_site_fract_y
 _atom_site_fract_z
 _atom_site_occupancy
  Si  Si0  1  0.750000  0.000000  0.000000  1
  Si  Si1  1  0.250000  0.000000  0.000000  1
  Si  Si2  1  0.831777  0.500000  0.836447  1
  Si  Si3  1  0.668223  0.163553  0.500000  1
  Si  Si4  1  0.331777  0.836447  0.500000  1
  Si  Si5  1  0.168223  0.500000  0.163553  1
  W  W6  1  0.424999  0.298924  0.851078  1
  W  W7  1  0.575001  0.701076  0.148922  1
  W  W8  1  0.250000  0.500000  0.500000  1
  W  W9  1  0.750000  0.500000  0.500000  1
  W  W10  1  0.723923  0.851078  0.701076  1
  W  W11  1  0.276077  0.148922  0.298924  1
  W  W12  1  0.924999  0.851078  0.298924  1
  W  W13  1  0.223923  0.701076  0.851078  1
  W  W14  1  0.776077  0.298924  0.148922  1
  W  W15  1  0.075001  0.148922  0.701076  1
