# generated using pymatgen
data_B2O3
_symmetry_space_group_name_H-M   'P 1'
_cell_length_a   4.39444846
_cell_length_b   4.39444851
_cell_length_c   8.64672796
_cell_angle_alpha   90.00000000
_cell_angle_beta   90.00000000
_cell_angle_gamma   119.99999962
_symmetry_Int_Tables_number   1
_chemical_formula_structural   B2O3
_chemical_formula_sum   'B6 O9'
_cell_volume   144.60762199
_cell_formula_units_Z   3
loop_
 _symmetry_equiv_pos_site_id
 _symmetry_equiv_pos_as_xyz
  1  'x, y, z'
loop_
 _atom_site_type_symbol
 _atom_site_label
 _atom_site_symmetry_multiplicity
 _atom_site_fract_x
 _atom_site_fract_y
 _atom_site_fract_z
 _atom_site_occupancy
  B  B0  1  0.223527  0.399693  0.979773  1
  B  B1  1  0.176167  0.776473  0.646440  1
  B  B2  1  0.400899  0.224158  0.428551  1
  B  B3  1  0.823260  0.599101  0.095218  1
  B  B4  1  0.775842  0.176740  0.761885  1
  B  B5  1  0.600307  0.823833  0.313106  1
  O  O6  1  0.132146  0.592474  0.075207  1
  O  O7  1  0.538827  0.405962  -0.000113  1
  O  O8  1  0.169708  0.999999  0.537283  1
  O  O9  1  0.407526  0.539673  0.408540  1
  O  O10  1  0.000001  0.169709  0.870616  1
  O  O11  1  0.594038  0.132865  0.333220  1
  O  O12  1  0.830291  0.830292  0.203949  1
  O  O13  1  0.867135  0.461173  0.666554  1
  O  O14  1  0.460327  0.867854  0.741874  1
