# generated using pymatgen
data_TaPd3
_symmetry_space_group_name_H-M   'P 1'
_cell_length_a   3.93387686
_cell_length_b   3.93387987
_cell_length_c   4.90358295
_cell_angle_alpha   113.62943483
_cell_angle_beta   113.62941990
_cell_angle_gamma   90.03788327
_symmetry_Int_Tables_number   1
_chemical_formula_structural   TaPd3
_chemical_formula_sum   'Ta1 Pd3'
_cell_volume   62.50605701
_cell_formula_units_Z   1
loop_
 _symmetry_equiv_pos_site_id
 _symmetry_equiv_pos_as_xyz
  1  'x, y, z'
loop_
 _atom_site_type_symbol
 _atom_site_label
 _atom_site_symmetry_multiplicity
 _atom_site_fract_x
 _atom_site_fract_y
 _atom_site_fract_z
 _atom_site_occupancy
  Pd  Pd0  1  0.500000  0.500000  0.000000  1
  Pd  Pd1  1  0.250003  0.749998  0.500000  1
  Pd  Pd2  1  0.749997  0.250002  0.500000  1
  Ta  Ta3  1  0.000000  0.000000  0.000000  1
