# generated using pymatgen
data_KMnF3
_symmetry_space_group_name_H-M   'P 1'
_cell_length_a   6.00927152
_cell_length_b   6.03058313
_cell_length_c   8.49761660
_cell_angle_alpha   90.00000000
_cell_angle_beta   90.00000000
_cell_angle_gamma   90.00000000
_symmetry_Int_Tables_number   1
_chemical_formula_structural   KMnF3
_chemical_formula_sum   'K4 Mn4 F12'
_cell_volume   307.94862433
_cell_formula_units_Z   4
loop_
 _symmetry_equiv_pos_site_id
 _symmetry_equiv_pos_as_xyz
  1  'x, y, z'
loop_
 _atom_site_type_symbol
 _atom_site_label
 _atom_site_symmetry_multiplicity
 _atom_site_fract_x
 _atom_site_fract_y
 _atom_site_fract_z
 _atom_site_occupancy
  F  F0  1  0.734556  0.265361  0.522740  1
  F  F1  1  0.234556  0.234639  0.977260  1
  F  F2  1  0.765444  0.765361  0.477260  1
  F  F3  1  0.265444  0.734639  0.022740  1
  F  F4  1  0.265444  0.734639  0.477260  1
  F  F5  1  0.765444  0.765361  0.022740  1
  F  F6  1  0.234556  0.234639  0.522740  1
  F  F7  1  0.734556  0.265361  0.977260  1
  F  F8  1  0.503627  0.955997  0.750000  1
  F  F9  1  0.003627  0.544003  0.750000  1
  F  F10  1  0.996373  0.455997  0.250000  1
  F  F11  1  0.496373  0.044003  0.250000  1
  K  K12  1  0.990667  0.001981  0.750000  1
  K  K13  1  0.490667  0.498019  0.750000  1
  K  K14  1  0.509333  0.501981  0.250000  1
  K  K15  1  0.009333  0.998019  0.250000  1
  Mn  Mn16  1  0.000000  0.500000  0.000000  1
  Mn  Mn17  1  0.500000  0.000000  0.500000  1
  Mn  Mn18  1  0.500000  0.000000  0.000000  1
  Mn  Mn19  1  0.000000  0.500000  0.500000  1
