# generated using pymatgen
data_Na4Al3(SiO4)3
_symmetry_space_group_name_H-M   'P 1'
_cell_length_a   8.95858459
_cell_length_b   8.95858459
_cell_length_c   8.95858459
_cell_angle_alpha   90.00000000
_cell_angle_beta   90.00000000
_cell_angle_gamma   90.00000000
_symmetry_Int_Tables_number   1
_chemical_formula_structural   Na4Al3(SiO4)3
_chemical_formula_sum   'Na8 Al6 Si6 O24'
_cell_volume   718.98229571
_cell_formula_units_Z   2
loop_
 _symmetry_equiv_pos_site_id
 _symmetry_equiv_pos_as_xyz
  1  'x, y, z'
loop_
 _atom_site_type_symbol
 _atom_site_label
 _atom_site_symmetry_multiplicity
 _atom_site_fract_x
 _atom_site_fract_y
 _atom_site_fract_z
 _atom_site_occupancy
  Al  Al0  1  0.250000  0.000000  0.500000  1
  Al  Al1  1  0.000000  0.500000  0.750000  1
  Al  Al2  1  0.000000  0.500000  0.250000  1
  Al  Al3  1  0.500000  0.250000  0.000000  1
  Al  Al4  1  0.500000  0.750000  0.000000  1
  Al  Al5  1  0.750000  0.000000  0.500000  1
  Si  Si6  1  0.250000  0.500000  0.000000  1
  Si  Si7  1  0.500000  0.000000  0.750000  1
  Si  Si8  1  0.500000  0.000000  0.250000  1
  Si  Si9  1  0.000000  0.250000  0.500000  1
  Si  Si10  1  0.000000  0.750000  0.500000  1
  Si  Si11  1  0.750000  0.500000  0.000000  1
  Na  Na12  1  0.175992  0.175992  0.175992  1
  Na  Na13  1  0.324008  0.675992  0.324008  1
  Na  Na14  1  0.324008  0.324008  0.675992  1
  Na  Na15  1  0.675992  0.324008  0.324008  1
  Na  Na16  1  0.824008  0.824008  0.175992  1
  Na  Na17  1  0.175992  0.824008  0.824008  1
  Na  Na18  1  0.824008  0.175992  0.824008  1
  Na  Na19  1  0.675992  0.675992  0.675992  1
  O  O20  1  0.149158  0.435997  0.138965  1
  O  O21  1  0.350842  0.638965  0.064003  1
  O  O22  1  0.350842  0.361035  0.935997  1
  O  O23  1  0.361035  0.064003  0.649158  1
  O  O24  1  0.638965  0.064003  0.350842  1
  O  O25  1  0.935997  0.350842  0.361035  1
  O  O26  1  0.064003  0.649158  0.361035  1
  O  O27  1  0.138965  0.149158  0.435997  1
  O  O28  1  0.435997  0.138965  0.149158  1
  O  O29  1  0.564003  0.861035  0.149158  1
  O  O30  1  0.138965  0.850842  0.564003  1
  O  O31  1  0.564003  0.138965  0.850842  1
  O  O32  1  0.861035  0.850842  0.435997  1
  O  O33  1  0.861035  0.149158  0.564003  1
  O  O34  1  0.435997  0.861035  0.850842  1
  O  O35  1  0.149158  0.564003  0.861035  1
  O  O36  1  0.850842  0.435997  0.861035  1
  O  O37  1  0.850842  0.564003  0.138965  1
  O  O38  1  0.064003  0.350842  0.638965  1
  O  O39  1  0.935997  0.649158  0.638965  1
  O  O40  1  0.361035  0.935997  0.350842  1
  O  O41  1  0.638965  0.935997  0.649158  1
  O  O42  1  0.649158  0.361035  0.064003  1
  O  O43  1  0.649158  0.638965  0.935997  1
