# generated using pymatgen
data_Sr(Si3N4)2
_symmetry_space_group_name_H-M   'P 1'
_cell_length_a   4.84299604
_cell_length_b   6.59004979
_cell_length_c   6.59004913
_cell_angle_alpha   73.98553019
_cell_angle_beta   68.44171197
_cell_angle_gamma   68.44171137
_symmetry_Int_Tables_number   1
_chemical_formula_structural   Sr(Si3N4)2
_chemical_formula_sum   'Sr1 Si6 N8'
_cell_volume   179.49905264
_cell_formula_units_Z   1
loop_
 _symmetry_equiv_pos_site_id
 _symmetry_equiv_pos_as_xyz
  1  'x, y, z'
loop_
 _atom_site_type_symbol
 _atom_site_label
 _atom_site_symmetry_multiplicity
 _atom_site_fract_x
 _atom_site_fract_y
 _atom_site_fract_z
 _atom_site_occupancy
  Sr  Sr0  1  0.342225  0.500000  0.500000  1
  Si  Si1  1  0.012077  0.043089  0.636386  1
  Si  Si2  1  0.691553  0.363614  0.956911  1
  Si  Si3  1  0.012077  0.636386  0.043089  1
  Si  Si4  1  0.691553  0.956911  0.363614  1
  Si  Si5  1  0.486839  0.873020  0.873020  1
  Si  Si6  1  0.232878  0.126980  0.126980  1
  N  N7  1  0.784636  0.291767  0.708233  1
  N  N8  1  0.403851  0.984685  0.620497  1
  N  N9  1  0.889430  0.816050  0.816050  1
  N  N10  1  0.009033  0.015315  0.379503  1
  N  N11  1  0.784636  0.708233  0.291767  1
  N  N12  1  0.403851  0.620497  0.984685  1
  N  N13  1  0.009033  0.379503  0.015315  1
  N  N14  1  0.521529  0.183950  0.183950  1
