# generated using pymatgen
data_NbCu3S4
_symmetry_space_group_name_H-M   'P 1'
_cell_length_a   5.52491950
_cell_length_b   5.52491950
_cell_length_c   5.52491950
_cell_angle_alpha   90.00000000
_cell_angle_beta   90.00000000
_cell_angle_gamma   90.00000000
_symmetry_Int_Tables_number   1
_chemical_formula_structural   NbCu3S4
_chemical_formula_sum   'Nb1 Cu3 S4'
_cell_volume   168.64670629
_cell_formula_units_Z   1
loop_
 _symmetry_equiv_pos_site_id
 _symmetry_equiv_pos_as_xyz
  1  'x, y, z'
loop_
 _atom_site_type_symbol
 _atom_site_label
 _atom_site_symmetry_multiplicity
 _atom_site_fract_x
 _atom_site_fract_y
 _atom_site_fract_z
 _atom_site_occupancy
  S  S0  1  0.243136  0.756864  0.756864  1
  S  S1  1  0.756864  0.756864  0.243136  1
  S  S2  1  0.756864  0.243136  0.756864  1
  S  S3  1  0.243136  0.243136  0.243136  1
  Cu  Cu4  1  0.500000  0.000000  0.000000  1
  Cu  Cu5  1  0.000000  0.000000  0.500000  1
  Cu  Cu6  1  0.000000  0.500000  0.000000  1
  Nb  Nb7  1  0.000000  0.000000  0.000000  1
