# generated using pymatgen
data_BaTiO3
_symmetry_space_group_name_H-M   'P 1'
_cell_length_a   5.78755773
_cell_length_b   5.78755773
_cell_length_c   14.09708545
_cell_angle_alpha   90.00000000
_cell_angle_beta   90.00000000
_cell_angle_gamma   120.00000004
_symmetry_Int_Tables_number   1
_chemical_formula_structural   BaTiO3
_chemical_formula_sum   'Ba6 Ti6 O18'
_cell_volume   408.93156640
_cell_formula_units_Z   6
loop_
 _symmetry_equiv_pos_site_id
 _symmetry_equiv_pos_as_xyz
  1  'x, y, z'
loop_
 _atom_site_type_symbol
 _atom_site_label
 _atom_site_symmetry_multiplicity
 _atom_site_fract_x
 _atom_site_fract_y
 _atom_site_fract_z
 _atom_site_occupancy
  O  O0  1  0.834722  0.165278  0.419431  1
  O  O1  1  0.834722  0.669443  0.419431  1
  O  O2  1  0.330557  0.165278  0.419431  1
  O  O3  1  0.669443  0.834722  0.919431  1
  O  O4  1  0.165278  0.330557  0.580569  1
  O  O5  1  0.165278  0.834722  0.919431  1
  O  O6  1  0.165278  0.330557  0.919431  1
  O  O7  1  0.834722  0.165278  0.080569  1
  O  O8  1  0.330557  0.165278  0.080569  1
  O  O9  1  0.669443  0.834722  0.580569  1
  O  O10  1  0.165278  0.834722  0.580569  1
  O  O11  1  0.834722  0.669443  0.080569  1
  O  O12  1  0.517924  0.035849  0.250000  1
  O  O13  1  0.482076  0.517924  0.750000  1
  O  O14  1  0.035849  0.517924  0.750000  1
  O  O15  1  0.964151  0.482076  0.250000  1
  O  O16  1  0.517924  0.482076  0.250000  1
  O  O17  1  0.482076  0.964151  0.750000  1
  Ti  Ti18  1  0.333333  0.666667  0.653873  1
  Ti  Ti19  1  0.666667  0.333333  0.153873  1
  Ti  Ti20  1  0.666667  0.333333  0.346127  1
  Ti  Ti21  1  0.333333  0.666667  0.846127  1
  Ti  Ti22  1  0.000000  0.000000  0.500000  1
  Ti  Ti23  1  0.000000  0.000000  0.000000  1
  Ba  Ba24  1  0.333333  0.666667  0.403327  1
  Ba  Ba25  1  0.666667  0.333333  0.903327  1
  Ba  Ba26  1  0.666667  0.333333  0.596673  1
  Ba  Ba27  1  0.333333  0.666667  0.096673  1
  Ba  Ba28  1  0.000000  0.000000  0.750000  1
  Ba  Ba29  1  0.000000  0.000000  0.250000  1
