# generated using pymatgen
data_Li
_symmetry_space_group_name_H-M   'P 1'
_cell_length_a   5.95308589
_cell_length_b   5.95308627
_cell_length_c   5.95308634
_cell_angle_alpha   109.47122399
_cell_angle_beta   109.47122529
_cell_angle_gamma   109.47121913
_symmetry_Int_Tables_number   1
_chemical_formula_structural   Li
_chemical_formula_sum   Li8
_cell_volume   162.40693888
_cell_formula_units_Z   8
loop_
 _symmetry_equiv_pos_site_id
 _symmetry_equiv_pos_as_xyz
  1  'x, y, z'
loop_
 _atom_site_type_symbol
 _atom_site_label
 _atom_site_symmetry_multiplicity
 _atom_site_fract_x
 _atom_site_fract_y
 _atom_site_fract_z
 _atom_site_occupancy
  Li  Li0  1  0.489936  0.500000  1.000000  1
  Li  Li1  1  0.000000  0.489936  0.500000  1
  Li  Li2  1  0.500000  1.000000  0.989936  1
  Li  Li3  1  0.000000  0.989936  0.500000  1
  Li  Li4  1  0.989936  0.500000  1.000000  1
  Li  Li5  1  0.500000  1.000000  0.489936  1
  Li  Li6  1  0.010064  0.010064  0.010064  1
  Li  Li7  1  0.510064  0.510064  0.510064  1
