# generated using pymatgen
data_Cs2TlVF6
_symmetry_space_group_name_H-M   'P 1'
_cell_length_a   6.65091168
_cell_length_b   6.65091168
_cell_length_c   6.65091168
_cell_angle_alpha   60.00000001
_cell_angle_beta   59.99999999
_cell_angle_gamma   60.00000004
_symmetry_Int_Tables_number   1
_chemical_formula_structural   Cs2TlVF6
_chemical_formula_sum   'Cs2 Tl1 V1 F6'
_cell_volume   208.03123356
_cell_formula_units_Z   1
loop_
 _symmetry_equiv_pos_site_id
 _symmetry_equiv_pos_as_xyz
  1  'x, y, z'
loop_
 _atom_site_type_symbol
 _atom_site_label
 _atom_site_symmetry_multiplicity
 _atom_site_fract_x
 _atom_site_fract_y
 _atom_site_fract_z
 _atom_site_occupancy
  F  F0  1  0.211352  0.788648  0.788648  1
  F  F1  1  0.211352  0.788648  0.211352  1
  F  F2  1  0.788648  0.211352  0.788648  1
  F  F3  1  0.211352  0.211352  0.788648  1
  F  F4  1  0.788648  0.211352  0.211352  1
  F  F5  1  0.788648  0.788648  0.211352  1
  V  V6  1  0.000000  0.000000  0.000000  1
  Cs  Cs7  1  0.750000  0.750000  0.750000  1
  Cs  Cs8  1  0.250000  0.250000  0.250000  1
  Tl  Tl9  1  0.500000  0.500000  0.500000  1
