# generated using pymatgen
data_Ca4TiN4
_symmetry_space_group_name_H-M   'P 1'
_cell_length_a   6.00401914
_cell_length_b   6.04168583
_cell_length_c   9.01435435
_cell_angle_alpha   71.62889831
_cell_angle_beta   79.46774797
_cell_angle_gamma   68.08723129
_symmetry_Int_Tables_number   1
_chemical_formula_structural   Ca4TiN4
_chemical_formula_sum   'Ca8 Ti2 N8'
_cell_volume   287.11549595
_cell_formula_units_Z   2
loop_
 _symmetry_equiv_pos_site_id
 _symmetry_equiv_pos_as_xyz
  1  'x, y, z'
loop_
 _atom_site_type_symbol
 _atom_site_label
 _atom_site_symmetry_multiplicity
 _atom_site_fract_x
 _atom_site_fract_y
 _atom_site_fract_z
 _atom_site_occupancy
  Ca  Ca0  1  0.235431  0.954470  0.607234  1
  Ca  Ca1  1  0.774808  0.578571  0.176427  1
  Ca  Ca2  1  0.736589  0.227782  0.981403  1
  Ca  Ca3  1  0.270664  0.520226  0.426693  1
  Ca  Ca4  1  0.764569  0.045530  0.392766  1
  Ca  Ca5  1  0.225192  0.421429  0.823573  1
  Ca  Ca6  1  0.729336  0.479774  0.573307  1
  Ca  Ca7  1  0.263411  0.772218  0.018597  1
  Ti  Ti8  1  0.716086  0.847665  0.755942  1
  Ti  Ti9  1  0.283914  0.152335  0.244058  1
  N  N10  1  0.970184  0.709329  0.609015  1
  N  N11  1  0.511431  0.176003  0.637198  1
  N  N12  1  0.029816  0.290671  0.390985  1
  N  N13  1  0.518212  0.633482  0.804081  1
  N  N14  1  0.115431  0.168451  0.073244  1
  N  N15  1  0.488569  0.823997  0.362802  1
  N  N16  1  0.481788  0.366518  0.195919  1
  N  N17  1  0.884569  0.831549  0.926756  1
