# generated using pymatgen
data_TaFe2
_symmetry_space_group_name_H-M   'P 1'
_cell_length_a   4.76095193
_cell_length_b   4.76095164
_cell_length_c   7.79091453
_cell_angle_alpha   90.00000000
_cell_angle_beta   90.00000000
_cell_angle_gamma   120.00000198
_symmetry_Int_Tables_number   1
_chemical_formula_structural   TaFe2
_chemical_formula_sum   'Ta4 Fe8'
_cell_volume   152.93490907
_cell_formula_units_Z   4
loop_
 _symmetry_equiv_pos_site_id
 _symmetry_equiv_pos_as_xyz
  1  'x, y, z'
loop_
 _atom_site_type_symbol
 _atom_site_label
 _atom_site_symmetry_multiplicity
 _atom_site_fract_x
 _atom_site_fract_y
 _atom_site_fract_z
 _atom_site_occupancy
  Ta  Ta0  1  0.666667  0.333333  0.434317  1
  Ta  Ta1  1  0.333333  0.666667  0.934317  1
  Ta  Ta2  1  0.333333  0.666667  0.565683  1
  Ta  Ta3  1  0.666667  0.333333  0.065683  1
  Fe  Fe4  1  0.341529  0.170764  0.750000  1
  Fe  Fe5  1  0.170764  0.829236  0.250000  1
  Fe  Fe6  1  0.170764  0.341529  0.250000  1
  Fe  Fe7  1  0.829236  0.658471  0.750000  1
  Fe  Fe8  1  0.000000  0.000000  0.000000  1
  Fe  Fe9  1  0.658471  0.829236  0.250000  1
  Fe  Fe10  1  0.829236  0.170764  0.750000  1
  Fe  Fe11  1  0.000000  0.000000  0.500000  1
