# generated using pymatgen
data_Y2Ti2O7
_symmetry_space_group_name_H-M   'P 1'
_cell_length_a   7.20629941
_cell_length_b   7.20629943
_cell_length_c   7.20629872
_cell_angle_alpha   59.99999839
_cell_angle_beta   59.99999829
_cell_angle_gamma   59.99999623
_symmetry_Int_Tables_number   1
_chemical_formula_structural   Y2Ti2O7
_chemical_formula_sum   'Y4 Ti4 O14'
_cell_volume   264.61950063
_cell_formula_units_Z   2
loop_
 _symmetry_equiv_pos_site_id
 _symmetry_equiv_pos_as_xyz
  1  'x, y, z'
loop_
 _atom_site_type_symbol
 _atom_site_label
 _atom_site_symmetry_multiplicity
 _atom_site_fract_x
 _atom_site_fract_y
 _atom_site_fract_z
 _atom_site_occupancy
  Y  Y0  1  0.500000  0.000000  0.500000  1
  Y  Y1  1  0.000000  0.500000  0.500000  1
  Y  Y2  1  0.500000  0.500000  0.000000  1
  Y  Y3  1  0.500000  0.500000  0.500000  1
  Ti  Ti4  1  0.000000  0.500000  0.000000  1
  Ti  Ti5  1  0.500000  0.000000  0.000000  1
  Ti  Ti6  1  0.000000  0.000000  0.500000  1
  Ti  Ti7  1  0.000000  0.000000  0.000000  1
  O  O8  1  0.625000  0.625000  0.625000  1
  O  O9  1  0.375000  0.375000  0.375000  1
  O  O10  1  0.329323  0.920677  0.920677  1
  O  O11  1  0.079323  0.670677  0.670677  1
  O  O12  1  0.920677  0.329323  0.920677  1
  O  O13  1  0.920677  0.920677  0.329323  1
  O  O14  1  0.329323  0.329323  0.920677  1
  O  O15  1  0.329323  0.920677  0.329323  1
  O  O16  1  0.920677  0.329323  0.329323  1
  O  O17  1  0.670677  0.670677  0.079323  1
  O  O18  1  0.079323  0.079323  0.670677  1
  O  O19  1  0.670677  0.079323  0.079323  1
  O  O20  1  0.670677  0.079323  0.670677  1
  O  O21  1  0.079323  0.670677  0.079323  1
