# generated using pymatgen
data_K2ZnH4
_symmetry_space_group_name_H-M   'P 1'
_cell_length_a   7.79373221
_cell_length_b   5.86459028
_cell_length_c   10.29865324
_cell_angle_alpha   90.00000000
_cell_angle_beta   90.00000000
_cell_angle_gamma   90.00000000
_symmetry_Int_Tables_number   1
_chemical_formula_structural   K2ZnH4
_chemical_formula_sum   'K8 Zn4 H16'
_cell_volume   470.72101906
_cell_formula_units_Z   4
loop_
 _symmetry_equiv_pos_site_id
 _symmetry_equiv_pos_as_xyz
  1  'x, y, z'
loop_
 _atom_site_type_symbol
 _atom_site_label
 _atom_site_symmetry_multiplicity
 _atom_site_fract_x
 _atom_site_fract_y
 _atom_site_fract_z
 _atom_site_occupancy
  K  K0  1  0.661835  0.250000  0.091863  1
  K  K1  1  0.161835  0.250000  0.408137  1
  K  K2  1  0.338165  0.750000  0.908137  1
  K  K3  1  0.838165  0.750000  0.591863  1
  K  K4  1  0.987493  0.250000  0.809569  1
  K  K5  1  0.487493  0.250000  0.690431  1
  K  K6  1  0.012507  0.750000  0.190431  1
  K  K7  1  0.512507  0.750000  0.309569  1
  Zn  Zn8  1  0.735041  0.250000  0.418612  1
  Zn  Zn9  1  0.235041  0.250000  0.081388  1
  Zn  Zn10  1  0.264959  0.750000  0.581388  1
  Zn  Zn11  1  0.764959  0.750000  0.918612  1
  H  H12  1  0.811428  0.018321  0.345419  1
  H  H13  1  0.311428  0.481679  0.154581  1
  H  H14  1  0.188572  0.518321  0.654581  1
  H  H15  1  0.688572  0.981679  0.845419  1
  H  H16  1  0.188572  0.981679  0.654581  1
  H  H17  1  0.688572  0.518321  0.845419  1
  H  H18  1  0.811428  0.481679  0.345419  1
  H  H19  1  0.311428  0.018321  0.154581  1
  H  H20  1  0.524068  0.250000  0.411853  1
  H  H21  1  0.024068  0.250000  0.088147  1
  H  H22  1  0.475932  0.750000  0.588147  1
  H  H23  1  0.975932  0.750000  0.911853  1
  H  H24  1  0.308024  0.250000  0.928847  1
  H  H25  1  0.808024  0.250000  0.571153  1
  H  H26  1  0.691976  0.750000  0.071153  1
  H  H27  1  0.191976  0.750000  0.428847  1
