# generated using pymatgen
data_K2Sn2O3
_symmetry_space_group_name_H-M   'P 1'
_cell_length_a   5.98481597
_cell_length_b   5.98482071
_cell_length_c   5.98478365
_cell_angle_alpha   61.75172265
_cell_angle_beta   61.75193633
_cell_angle_gamma   61.75123178
_symmetry_Int_Tables_number   1
_chemical_formula_structural   K2Sn2O3
_chemical_formula_sum   'K2 Sn2 O3'
_cell_volume   157.52711703
_cell_formula_units_Z   1
loop_
 _symmetry_equiv_pos_site_id
 _symmetry_equiv_pos_as_xyz
  1  'x, y, z'
loop_
 _atom_site_type_symbol
 _atom_site_label
 _atom_site_symmetry_multiplicity
 _atom_site_fract_x
 _atom_site_fract_y
 _atom_site_fract_z
 _atom_site_occupancy
  K  K0  1  0.236970  0.236975  0.236974  1
  O  O1  1  0.235674  0.733830  0.234500  1
  Sn  Sn2  1  0.476024  0.476023  0.476029  1
  O  O3  1  0.733831  0.234501  0.235674  1
  Sn  Sn4  1  0.994542  0.994543  0.994536  1
  O  O5  1  0.234501  0.235674  0.733832  1
  K  K6  1  0.738359  0.738354  0.738355  1
