# generated using pymatgen
data_RbAgO
_symmetry_space_group_name_H-M   'P 1'
_cell_length_a   5.90320799
_cell_length_b   7.81930091
_cell_length_c   7.81930091
_cell_angle_alpha   81.80811962
_cell_angle_beta   67.82252841
_cell_angle_gamma   67.82252833
_symmetry_Int_Tables_number   1
_chemical_formula_structural   RbAgO
_chemical_formula_sum   'Rb4 Ag4 O4'
_cell_volume   309.50224694
_cell_formula_units_Z   4
loop_
 _symmetry_equiv_pos_site_id
 _symmetry_equiv_pos_as_xyz
  1  'x, y, z'
loop_
 _atom_site_type_symbol
 _atom_site_label
 _atom_site_symmetry_multiplicity
 _atom_site_fract_x
 _atom_site_fract_y
 _atom_site_fract_z
 _atom_site_occupancy
  O  O0  1  0.711843  0.288157  0.288157  1
  O  O1  1  0.000000  0.711843  0.288157  1
  O  O2  1  0.000000  0.288157  0.711843  1
  O  O3  1  0.288157  0.711843  0.711843  1
  Rb  Rb4  1  0.500000  0.685083  0.314917  1
  Rb  Rb5  1  0.814917  0.685083  0.685083  1
  Rb  Rb6  1  0.185083  0.314917  0.314917  1
  Rb  Rb7  1  0.500000  0.314917  0.685083  1
  Ag  Ag8  1  0.855743  0.000000  0.288514  1
  Ag  Ag9  1  0.144257  0.711486  0.000000  1
  Ag  Ag10  1  0.855743  0.288514  0.000000  1
  Ag  Ag11  1  0.144257  0.000000  0.711486  1
