# generated using pymatgen
data_ZrSi
_symmetry_space_group_name_H-M   'P 1'
_cell_length_a   3.80501305
_cell_length_b   5.33118527
_cell_length_c   7.03429086
_cell_angle_alpha   90.00000000
_cell_angle_beta   90.00000000
_cell_angle_gamma   90.00000000
_symmetry_Int_Tables_number   1
_chemical_formula_structural   ZrSi
_chemical_formula_sum   'Zr4 Si4'
_cell_volume   142.69220464
_cell_formula_units_Z   4
loop_
 _symmetry_equiv_pos_site_id
 _symmetry_equiv_pos_as_xyz
  1  'x, y, z'
loop_
 _atom_site_type_symbol
 _atom_site_label
 _atom_site_symmetry_multiplicity
 _atom_site_fract_x
 _atom_site_fract_y
 _atom_site_fract_z
 _atom_site_occupancy
  Si  Si0  1  0.250000  0.637832  0.043316  1
  Si  Si1  1  0.750000  0.362168  0.956684  1
  Si  Si2  1  0.750000  0.137832  0.456684  1
  Si  Si3  1  0.250000  0.862168  0.543316  1
  Zr  Zr4  1  0.250000  0.124889  0.175517  1
  Zr  Zr5  1  0.750000  0.875111  0.824483  1
  Zr  Zr6  1  0.750000  0.624889  0.324483  1
  Zr  Zr7  1  0.250000  0.375111  0.675517  1
