# generated using pymatgen
data_CaFeWO6
_symmetry_space_group_name_H-M   'P 1'
_cell_length_a   5.53898869
_cell_length_b   5.53905724
_cell_length_c   5.53899096
_cell_angle_alpha   59.99387276
_cell_angle_beta   59.99345810
_cell_angle_gamma   59.99395253
_symmetry_Int_Tables_number   1
_chemical_formula_structural   CaFeWO6
_chemical_formula_sum   'Ca1 Fe1 W1 O6'
_cell_volume   120.14910821
_cell_formula_units_Z   1
loop_
 _symmetry_equiv_pos_site_id
 _symmetry_equiv_pos_as_xyz
  1  'x, y, z'
loop_
 _atom_site_type_symbol
 _atom_site_label
 _atom_site_symmetry_multiplicity
 _atom_site_fract_x
 _atom_site_fract_y
 _atom_site_fract_z
 _atom_site_occupancy
  Ca  Ca0  1  0.750000  0.750001  0.750001  1
  Fe  Fe1  1  0.500004  0.500001  0.500008  1
  W  W2  1  0.999995  -0.000000  0.999995  1
  O  O3  1  0.246402  0.753610  0.753605  1
  O  O4  1  0.246392  0.753603  0.246389  1
  O  O5  1  0.753610  0.246399  0.753607  1
  O  O6  1  0.246394  0.246390  0.753599  1
  O  O7  1  0.753601  0.246390  0.246392  1
  O  O8  1  0.753607  0.753610  0.246400  1
