# generated using pymatgen
data_Pr(BC)2
_symmetry_space_group_name_H-M   'P 1'
_cell_length_a   3.88348749
_cell_length_b   5.40374931
_cell_length_c   5.40374931
_cell_angle_alpha   90.00000000
_cell_angle_beta   90.00000000
_cell_angle_gamma   90.00000000
_symmetry_Int_Tables_number   1
_chemical_formula_structural   Pr(BC)2
_chemical_formula_sum   'Pr2 B4 C4'
_cell_volume   113.39980210
_cell_formula_units_Z   2
loop_
 _symmetry_equiv_pos_site_id
 _symmetry_equiv_pos_as_xyz
  1  'x, y, z'
loop_
 _atom_site_type_symbol
 _atom_site_label
 _atom_site_symmetry_multiplicity
 _atom_site_fract_x
 _atom_site_fract_y
 _atom_site_fract_z
 _atom_site_occupancy
  B  B0  1  0.500000  0.638199  0.138199  1
  B  B1  1  0.500000  0.861801  0.638199  1
  B  B2  1  0.500000  0.361801  0.861801  1
  B  B3  1  0.500000  0.138199  0.361801  1
  C  C4  1  0.500000  0.660465  0.839535  1
  C  C5  1  0.500000  0.839535  0.339535  1
  C  C6  1  0.500000  0.160465  0.660465  1
  C  C7  1  0.500000  0.339535  0.160465  1
  Pr  Pr8  1  0.000000  0.500000  0.500000  1
  Pr  Pr9  1  0.000000  0.000000  0.000000  1
