# generated using pymatgen
data_CO2
_symmetry_space_group_name_H-M   'P 1'
_cell_length_a   5.08240894
_cell_length_b   5.08240894
_cell_length_c   7.36112012
_cell_angle_alpha   90.00000000
_cell_angle_beta   90.00000000
_cell_angle_gamma   90.00000000
_symmetry_Int_Tables_number   1
_chemical_formula_structural   CO2
_chemical_formula_sum   'C4 O8'
_cell_volume   190.14421515
_cell_formula_units_Z   4
loop_
 _symmetry_equiv_pos_site_id
 _symmetry_equiv_pos_as_xyz
  1  'x, y, z'
loop_
 _atom_site_type_symbol
 _atom_site_label
 _atom_site_symmetry_multiplicity
 _atom_site_fract_x
 _atom_site_fract_y
 _atom_site_fract_z
 _atom_site_occupancy
  C  C0  1  0.499153  0.499153  0.000000  1
  C  C1  1  0.000847  0.999153  0.250000  1
  C  C2  1  0.999153  0.000847  0.750000  1
  C  C3  1  0.500847  0.500847  0.500000  1
  O  O4  1  0.164301  0.162553  0.250391  1
  O  O5  1  0.337447  0.664301  0.500391  1
  O  O6  1  0.662553  0.335699  0.000391  1
  O  O7  1  0.664301  0.337447  0.499609  1
  O  O8  1  0.335699  0.662553  0.999609  1
  O  O9  1  0.835699  0.837447  0.750391  1
  O  O10  1  0.162553  0.164301  0.749609  1
  O  O11  1  0.837447  0.835699  0.249609  1
