# generated using pymatgen
data_La2CuO4
_symmetry_space_group_name_H-M   'P 1'
_cell_length_a   3.81380405
_cell_length_b   3.81380406
_cell_length_c   7.14116336
_cell_angle_alpha   105.48574212
_cell_angle_beta   105.48574211
_cell_angle_gamma   90.00665868
_symmetry_Int_Tables_number   1
_chemical_formula_structural   La2CuO4
_chemical_formula_sum   'La2 Cu1 O4'
_cell_volume   96.17876992
_cell_formula_units_Z   1
loop_
 _symmetry_equiv_pos_site_id
 _symmetry_equiv_pos_as_xyz
  1  'x, y, z'
loop_
 _atom_site_type_symbol
 _atom_site_label
 _atom_site_symmetry_multiplicity
 _atom_site_fract_x
 _atom_site_fract_y
 _atom_site_fract_z
 _atom_site_occupancy
  O  O0  1  0.000000  0.500000  0.000000  1
  O  O1  1  0.500000  0.000000  0.000000  1
  O  O2  1  0.186226  0.186226  0.372451  1
  O  O3  1  0.813774  0.813774  0.627549  1
  Cu  Cu4  1  0.000000  0.000000  0.000000  1
  La  La5  1  0.360893  0.360893  0.721785  1
  La  La6  1  0.639107  0.639107  0.278215  1
