# generated using pymatgen
data_VAg3O4
_symmetry_space_group_name_H-M   'P 1'
_cell_length_a   5.06708750
_cell_length_b   5.06708751
_cell_length_c   6.13840220
_cell_angle_alpha   114.37686515
_cell_angle_beta   114.37686521
_cell_angle_gamma   90.00000005
_symmetry_Int_Tables_number   1
_chemical_formula_structural   VAg3O4
_chemical_formula_sum   'V1 Ag3 O4'
_cell_volume   127.97132129
_cell_formula_units_Z   1
loop_
 _symmetry_equiv_pos_site_id
 _symmetry_equiv_pos_as_xyz
  1  'x, y, z'
loop_
 _atom_site_type_symbol
 _atom_site_label
 _atom_site_symmetry_multiplicity
 _atom_site_fract_x
 _atom_site_fract_y
 _atom_site_fract_z
 _atom_site_occupancy
  O  O0  1  0.099188  0.697473  0.796661  1
  O  O1  1  0.900812  0.900812  0.203339  1
  O  O2  1  0.302527  0.302527  0.203339  1
  O  O3  1  0.697473  0.099188  0.796661  1
  V  V4  1  0.000000  0.000000  0.000000  1
  Ag  Ag5  1  0.250000  0.750000  0.500000  1
  Ag  Ag6  1  0.500000  0.500000  0.000000  1
  Ag  Ag7  1  0.750000  0.250000  0.500000  1
