# generated using pymatgen
data_HfTe5
_symmetry_space_group_name_H-M   'P 1'
_cell_length_a   4.03062568
_cell_length_b   8.17931046
_cell_length_c   13.83963803
_cell_angle_alpha   90.00000000
_cell_angle_beta   90.00000000
_cell_angle_gamma   104.26408390
_symmetry_Int_Tables_number   1
_chemical_formula_structural   HfTe5
_chemical_formula_sum   'Hf2 Te10'
_cell_volume   442.19519742
_cell_formula_units_Z   2
loop_
 _symmetry_equiv_pos_site_id
 _symmetry_equiv_pos_as_xyz
  1  'x, y, z'
loop_
 _atom_site_type_symbol
 _atom_site_label
 _atom_site_symmetry_multiplicity
 _atom_site_fract_x
 _atom_site_fract_y
 _atom_site_fract_z
 _atom_site_occupancy
  Te  Te0  1  0.213767  0.427535  0.933632  1
  Te  Te1  1  0.786233  0.572465  0.066368  1
  Te  Te2  1  0.672415  0.344830  0.750000  1
  Te  Te3  1  0.327585  0.655170  0.250000  1
  Te  Te4  1  0.917071  0.834142  0.850452  1
  Te  Te5  1  0.082929  0.165858  0.149548  1
  Te  Te6  1  0.082929  0.165858  0.350452  1
  Te  Te7  1  0.917071  0.834142  0.649548  1
  Te  Te8  1  0.213767  0.427535  0.566368  1
  Te  Te9  1  0.786233  0.572465  0.433632  1
  Hf  Hf10  1  0.687780  0.375560  0.250000  1
  Hf  Hf11  1  0.312220  0.624440  0.750000  1
