# generated using pymatgen
data_ThSi2Ni
_symmetry_space_group_name_H-M   'P 1'
_cell_length_a   4.11829777
_cell_length_b   4.15089498
_cell_length_c   8.43354308
_cell_angle_alpha   104.24651695
_cell_angle_beta   90.00000000
_cell_angle_gamma   90.00000000
_symmetry_Int_Tables_number   1
_chemical_formula_structural   ThSi2Ni
_chemical_formula_sum   'Th2 Si4 Ni2'
_cell_volume   139.73445897
_cell_formula_units_Z   2
loop_
 _symmetry_equiv_pos_site_id
 _symmetry_equiv_pos_as_xyz
  1  'x, y, z'
loop_
 _atom_site_type_symbol
 _atom_site_label
 _atom_site_symmetry_multiplicity
 _atom_site_fract_x
 _atom_site_fract_y
 _atom_site_fract_z
 _atom_site_occupancy
  Th  Th0  1  0.250000  0.394422  0.788844  1
  Th  Th1  1  0.750000  0.605578  0.211156  1
  Si  Si2  1  0.250000  0.039280  0.078561  1
  Si  Si3  1  0.750000  0.960720  0.921439  1
  Si  Si4  1  0.250000  0.749188  0.498377  1
  Si  Si5  1  0.750000  0.250812  0.501623  1
  Ni  Ni6  1  0.250000  0.181075  0.362150  1
  Ni  Ni7  1  0.750000  0.818925  0.637850  1
