# generated using pymatgen
data_NdAl4
_symmetry_space_group_name_H-M   'P 1'
_cell_length_a   4.25112043
_cell_length_b   4.25111987
_cell_length_c   6.46921485
_cell_angle_alpha   109.18171695
_cell_angle_beta   109.18170930
_cell_angle_gamma   90.00000864
_symmetry_Int_Tables_number   1
_chemical_formula_structural   NdAl4
_chemical_formula_sum   'Nd1 Al4'
_cell_volume   103.52404329
_cell_formula_units_Z   1
loop_
 _symmetry_equiv_pos_site_id
 _symmetry_equiv_pos_as_xyz
  1  'x, y, z'
loop_
 _atom_site_type_symbol
 _atom_site_label
 _atom_site_symmetry_multiplicity
 _atom_site_fract_x
 _atom_site_fract_y
 _atom_site_fract_z
 _atom_site_occupancy
  Nd  Nd0  1  0.000000  0.000000  0.000000  1
  Al  Al1  1  0.750000  0.250000  0.500000  1
  Al  Al2  1  0.610968  0.610968  0.221938  1
  Al  Al3  1  0.250000  0.750000  0.500000  1
  Al  Al4  1  0.389031  0.389031  0.778062  1
