# generated using pymatgen
data_Ta5Si3
_symmetry_space_group_name_H-M   'P 1'
_cell_length_a   6.56087873
_cell_length_b   6.56085431
_cell_length_c   7.56146000
_cell_angle_alpha   115.70557990
_cell_angle_beta   115.71129869
_cell_angle_gamma   90.00000005
_symmetry_Int_Tables_number   1
_chemical_formula_structural   Ta5Si3
_chemical_formula_sum   'Ta10 Si6'
_cell_volume   257.03857035
_cell_formula_units_Z   2
loop_
 _symmetry_equiv_pos_site_id
 _symmetry_equiv_pos_as_xyz
  1  'x, y, z'
loop_
 _atom_site_type_symbol
 _atom_site_label
 _atom_site_symmetry_multiplicity
 _atom_site_fract_x
 _atom_site_fract_y
 _atom_site_fract_z
 _atom_site_occupancy
  Si  Si0  1  0.630003  0.130003  -0.000003  1
  Si  Si1  1  0.869993  0.630003  -0.000003  1
  Si  Si2  1  0.130007  0.369997  1.000003  1
  Si  Si3  1  0.369997  0.869997  1.000003  1
  Si  Si4  1  0.750019  0.750000  0.500000  1
  Si  Si5  1  0.249981  0.250000  0.500000  1
  Ta  Ta6  1  0.184837  0.014553  0.699356  1
  Ta  Ta7  1  0.014519  0.514553  0.699356  1
  Ta  Ta8  1  0.684836  0.184869  0.699297  1
  Ta  Ta9  1  0.985481  0.485447  0.300644  1
  Ta  Ta10  1  0.514462  0.684869  0.699297  1
  Ta  Ta11  1  0.815163  0.985447  0.300644  1
  Ta  Ta12  1  0.485538  0.315131  0.300703  1
  Ta  Ta13  1  0.315164  0.815131  0.300703  1
  Ta  Ta14  1  0.500000  0.500000  0.000000  1
  Ta  Ta15  1  0.000000  0.000000  0.000000  1
