# generated using pymatgen
data_NaNiN
_symmetry_space_group_name_H-M   'P 1'
_cell_length_a   3.41064084
_cell_length_b   5.76722973
_cell_length_c   8.87755153
_cell_angle_alpha   90.00000000
_cell_angle_beta   90.00000000
_cell_angle_gamma   90.00000000
_symmetry_Int_Tables_number   1
_chemical_formula_structural   NaNiN
_chemical_formula_sum   'Na4 Ni4 N4'
_cell_volume   174.62098807
_cell_formula_units_Z   4
loop_
 _symmetry_equiv_pos_site_id
 _symmetry_equiv_pos_as_xyz
  1  'x, y, z'
loop_
 _atom_site_type_symbol
 _atom_site_label
 _atom_site_symmetry_multiplicity
 _atom_site_fract_x
 _atom_site_fract_y
 _atom_site_fract_z
 _atom_site_occupancy
  Na  Na0  1  0.250000  0.066250  0.662373  1
  Na  Na1  1  0.250000  0.433750  0.162373  1
  Na  Na2  1  0.750000  0.933750  0.337627  1
  Na  Na3  1  0.750000  0.566250  0.837627  1
  Ni  Ni4  1  0.250000  0.608628  0.553185  1
  Ni  Ni5  1  0.250000  0.891372  0.053185  1
  Ni  Ni6  1  0.750000  0.391372  0.446815  1
  Ni  Ni7  1  0.750000  0.108628  0.946815  1
  N  N8  1  0.250000  0.200067  0.930844  1
  N  N9  1  0.250000  0.299933  0.430844  1
  N  N10  1  0.750000  0.799933  0.069156  1
  N  N11  1  0.750000  0.700067  0.569156  1
