# generated using pymatgen
data_Tb2O3
_symmetry_space_group_name_H-M   'P 1'
_cell_length_a   9.30467476
_cell_length_b   9.30467476
_cell_length_c   9.30467476
_cell_angle_alpha   109.47122062
_cell_angle_beta   109.47122062
_cell_angle_gamma   109.47122062
_symmetry_Int_Tables_number   1
_chemical_formula_structural   Tb2O3
_chemical_formula_sum   'Tb16 O24'
_cell_volume   620.12851372
_cell_formula_units_Z   8
loop_
 _symmetry_equiv_pos_site_id
 _symmetry_equiv_pos_as_xyz
  1  'x, y, z'
loop_
 _atom_site_type_symbol
 _atom_site_label
 _atom_site_symmetry_multiplicity
 _atom_site_fract_x
 _atom_site_fract_y
 _atom_site_fract_z
 _atom_site_occupancy
  O  O0  1  0.729661  0.260113  0.771745  1
  O  O1  1  0.988368  0.957915  0.728255  1
  O  O2  1  0.511632  0.239887  0.969548  1
  O  O3  1  0.542085  0.530452  0.770339  1
  O  O4  1  0.530452  0.770339  0.542085  1
  O  O5  1  0.771745  0.729661  0.260113  1
  O  O6  1  0.957915  0.728255  0.988368  1
  O  O7  1  0.969548  0.511632  0.239887  1
  O  O8  1  0.260113  0.771745  0.729661  1
  O  O9  1  0.728255  0.988368  0.957915  1
  O  O10  1  0.239887  0.969548  0.511632  1
  O  O11  1  0.770339  0.542085  0.530452  1
  O  O12  1  0.042092  0.271693  0.011612  1
  O  O13  1  0.760081  0.030480  0.488388  1
  O  O14  1  0.739919  0.228307  0.270399  1
  O  O15  1  0.469520  0.229601  0.457908  1
  O  O16  1  0.457908  0.469520  0.229601  1
  O  O17  1  0.228307  0.270399  0.739919  1
  O  O18  1  0.488388  0.760081  0.030480  1
  O  O19  1  0.271693  0.011612  0.042092  1
  O  O20  1  0.270399  0.739919  0.228307  1
  O  O21  1  0.030480  0.488388  0.760081  1
  O  O22  1  0.011612  0.042092  0.271693  1
  O  O23  1  0.229601  0.457908  0.469520  1
  Tb  Tb24  1  0.750000  0.782233  0.032233  1
  Tb  Tb25  1  0.467767  0.250000  0.717767  1
  Tb  Tb26  1  0.717767  0.467767  0.250000  1
  Tb  Tb27  1  0.032233  0.750000  0.782233  1
  Tb  Tb28  1  0.782233  0.032233  0.750000  1
  Tb  Tb29  1  0.250000  0.717767  0.467767  1
  Tb  Tb30  1  0.750000  0.282279  0.532279  1
  Tb  Tb31  1  0.967721  0.250000  0.217721  1
  Tb  Tb32  1  0.217721  0.967721  0.250000  1
  Tb  Tb33  1  0.532279  0.750000  0.282279  1
  Tb  Tb34  1  0.282279  0.532279  0.750000  1
  Tb  Tb35  1  0.250000  0.217721  0.967721  1
  Tb  Tb36  1  0.000076  0.500000  0.000000  1
  Tb  Tb37  1  0.500000  0.000000  0.000076  1
  Tb  Tb38  1  0.000000  0.000076  0.500000  1
  Tb  Tb39  1  0.499924  0.499924  0.499924  1
