# generated using pymatgen
data_Ca2FeWO6
_symmetry_space_group_name_H-M   'P 1'
_cell_length_a   5.60093315
_cell_length_b   5.60093314
_cell_length_c   5.60093314
_cell_angle_alpha   60.00000001
_cell_angle_beta   60.00000003
_cell_angle_gamma   60.00000000
_symmetry_Int_Tables_number   1
_chemical_formula_structural   Ca2FeWO6
_chemical_formula_sum   'Ca2 Fe1 W1 O6'
_cell_volume   124.24135178
_cell_formula_units_Z   1
loop_
 _symmetry_equiv_pos_site_id
 _symmetry_equiv_pos_as_xyz
  1  'x, y, z'
loop_
 _atom_site_type_symbol
 _atom_site_label
 _atom_site_symmetry_multiplicity
 _atom_site_fract_x
 _atom_site_fract_y
 _atom_site_fract_z
 _atom_site_occupancy
  O  O0  1  0.247077  0.752925  0.752924  1
  O  O1  1  0.247077  0.752925  0.247074  1
  O  O2  1  0.752925  0.247076  0.752924  1
  O  O3  1  0.247077  0.247076  0.752923  1
  O  O4  1  0.752925  0.247076  0.247075  1
  O  O5  1  0.752923  0.752925  0.247076  1
  Ca  Ca6  1  0.250000  0.250000  0.250001  1
  Ca  Ca7  1  0.749999  0.750001  0.750001  1
  Fe  Fe8  1  0.500001  0.500000  0.499999  1
  W  W9  1  0.000000  0.000000  0.000000  1
