# generated using pymatgen
data_PrSnRh
_symmetry_space_group_name_H-M   'P 1'
_cell_length_a   7.52204145
_cell_length_b   7.52204143
_cell_length_c   4.21471199
_cell_angle_alpha   90.00000000
_cell_angle_beta   90.00000000
_cell_angle_gamma   120.00000006
_symmetry_Int_Tables_number   1
_chemical_formula_structural   PrSnRh
_chemical_formula_sum   'Pr3 Sn3 Rh3'
_cell_volume   206.52373815
_cell_formula_units_Z   3
loop_
 _symmetry_equiv_pos_site_id
 _symmetry_equiv_pos_as_xyz
  1  'x, y, z'
loop_
 _atom_site_type_symbol
 _atom_site_label
 _atom_site_symmetry_multiplicity
 _atom_site_fract_x
 _atom_site_fract_y
 _atom_site_fract_z
 _atom_site_occupancy
  Pr  Pr0  1  0.586014  0.586014  0.000000  1
  Pr  Pr1  1  0.000000  0.413986  0.000000  1
  Pr  Pr2  1  0.413986  0.000000  0.000000  1
  Sn  Sn3  1  0.248253  0.248253  0.500000  1
  Sn  Sn4  1  0.751747  0.000000  0.500000  1
  Sn  Sn5  1  0.000000  0.751747  0.500000  1
  Rh  Rh6  1  0.666667  0.333333  0.500000  1
  Rh  Rh7  1  0.333333  0.666667  0.500000  1
  Rh  Rh8  1  0.000000  0.000000  0.000000  1
