# generated using pymatgen
data_TmSi2Ni
_symmetry_space_group_name_H-M   'P 1'
_cell_length_a   3.89899475
_cell_length_b   3.94302250
_cell_length_c   8.47621745
_cell_angle_alpha   90.00000000
_cell_angle_beta   103.29684509
_cell_angle_gamma   90.00000000
_symmetry_Int_Tables_number   1
_chemical_formula_structural   TmSi2Ni
_chemical_formula_sum   'Tm2 Si4 Ni2'
_cell_volume   126.81841458
_cell_formula_units_Z   2
loop_
 _symmetry_equiv_pos_site_id
 _symmetry_equiv_pos_as_xyz
  1  'x, y, z'
loop_
 _atom_site_type_symbol
 _atom_site_label
 _atom_site_symmetry_multiplicity
 _atom_site_fract_x
 _atom_site_fract_y
 _atom_site_fract_z
 _atom_site_occupancy
  Tm  Tm0  1  0.605888  0.250000  0.211775  1
  Tm  Tm1  1  0.394112  0.750000  0.788225  1
  Si  Si2  1  0.960922  0.250000  0.921843  1
  Si  Si3  1  0.039078  0.750000  0.078157  1
  Si  Si4  1  0.249087  0.250000  0.498175  1
  Si  Si5  1  0.750913  0.750000  0.501825  1
  Ni  Ni6  1  0.824602  0.250000  0.649204  1
  Ni  Ni7  1  0.175398  0.750000  0.350796  1
