# generated using pymatgen
data_Li2YAl
_symmetry_space_group_name_H-M   'P 1'
_cell_length_a   11.97183536
_cell_length_b   6.69622736
_cell_length_c   6.69622694
_cell_angle_alpha   28.76817216
_cell_angle_beta   26.62945928
_cell_angle_gamma   26.62945799
_symmetry_Int_Tables_number   1
_chemical_formula_structural   Li2YAl
_chemical_formula_sum   'Li2 Y1 Al1'
_cell_volume   99.50357456
_cell_formula_units_Z   1
loop_
 _symmetry_equiv_pos_site_id
 _symmetry_equiv_pos_as_xyz
  1  'x, y, z'
loop_
 _atom_site_type_symbol
 _atom_site_label
 _atom_site_symmetry_multiplicity
 _atom_site_fract_x
 _atom_site_fract_y
 _atom_site_fract_z
 _atom_site_occupancy
  Li  Li0  1  0.220117  0.000000  1.000000  1
  Li  Li1  1  0.779883  1.000000  0.000000  1
  Y  Y2  1  0.500000  0.000000  -0.000000  1
  Al  Al3  1  0.000000  0.000000  -0.000000  1
