# generated using pymatgen
data_O2
_symmetry_space_group_name_H-M   'P 1'
_cell_length_a   3.21934529
_cell_length_b   3.21934529
_cell_length_c   4.51210599
_cell_angle_alpha   107.63056834
_cell_angle_beta   107.63056834
_cell_angle_gamma   90.07023346
_symmetry_Int_Tables_number   1
_chemical_formula_structural   O2
_chemical_formula_sum   O2
_cell_volume   42.25130188
_cell_formula_units_Z   1
loop_
 _symmetry_equiv_pos_site_id
 _symmetry_equiv_pos_as_xyz
  1  'x, y, z'
loop_
 _atom_site_type_symbol
 _atom_site_label
 _atom_site_symmetry_multiplicity
 _atom_site_fract_x
 _atom_site_fract_y
 _atom_site_fract_z
 _atom_site_occupancy
  O  O0  1  0.064275  0.064275  0.151361  1
  O  O1  1  0.935725  0.935725  0.848639  1
