# generated using pymatgen
data_Mn5Si3
_symmetry_space_group_name_H-M   'P 1'
_cell_length_a   6.90108051
_cell_length_b   6.90108052
_cell_length_c   4.79521979
_cell_angle_alpha   90.00000000
_cell_angle_beta   90.00000000
_cell_angle_gamma   120.00000002
_symmetry_Int_Tables_number   1
_chemical_formula_structural   Mn5Si3
_chemical_formula_sum   'Mn10 Si6'
_cell_volume   197.77588569
_cell_formula_units_Z   2
loop_
 _symmetry_equiv_pos_site_id
 _symmetry_equiv_pos_as_xyz
  1  'x, y, z'
loop_
 _atom_site_type_symbol
 _atom_site_label
 _atom_site_symmetry_multiplicity
 _atom_site_fract_x
 _atom_site_fract_y
 _atom_site_fract_z
 _atom_site_occupancy
  Si  Si0  1  0.397697  0.000000  0.750000  1
  Si  Si1  1  0.397697  0.397697  0.250000  1
  Si  Si2  1  0.000000  0.602303  0.250000  1
  Si  Si3  1  0.000000  0.397697  0.750000  1
  Si  Si4  1  0.602303  0.602303  0.750000  1
  Si  Si5  1  0.602303  0.000000  0.250000  1
  Mn  Mn6  1  0.000000  0.755113  0.750000  1
  Mn  Mn7  1  0.000000  0.244887  0.250000  1
  Mn  Mn8  1  0.755113  0.755113  0.250000  1
  Mn  Mn9  1  0.755113  0.000000  0.750000  1
  Mn  Mn10  1  0.244887  0.244887  0.750000  1
  Mn  Mn11  1  0.244887  0.000000  0.250000  1
  Mn  Mn12  1  0.333333  0.666667  0.500000  1
  Mn  Mn13  1  0.666667  0.333333  0.000000  1
  Mn  Mn14  1  0.666667  0.333333  0.500000  1
  Mn  Mn15  1  0.333333  0.666667  0.000000  1
