# generated using pymatgen
data_Dy(TiGa2)2
_symmetry_space_group_name_H-M   'P 1'
_cell_length_a   5.46592325
_cell_length_b   5.50706686
_cell_length_c   5.50706686
_cell_angle_alpha   75.74260263
_cell_angle_beta   60.24683429
_cell_angle_gamma   60.24683429
_symmetry_Int_Tables_number   1
_chemical_formula_structural   Dy(TiGa2)2
_chemical_formula_sum   'Dy1 Ti2 Ga4'
_cell_volume   124.94393311
_cell_formula_units_Z   1
loop_
 _symmetry_equiv_pos_site_id
 _symmetry_equiv_pos_as_xyz
  1  'x, y, z'
loop_
 _atom_site_type_symbol
 _atom_site_label
 _atom_site_symmetry_multiplicity
 _atom_site_fract_x
 _atom_site_fract_y
 _atom_site_fract_z
 _atom_site_occupancy
  Dy  Dy0  1  0.000000  0.000000  0.000000  1
  Ti  Ti1  1  0.250000  0.500000  0.500000  1
  Ti  Ti2  1  0.750000  0.500000  0.500000  1
  Ga  Ga3  1  0.302601  0.000000  0.394799  1
  Ga  Ga4  1  0.697399  -0.000000  0.605201  1
  Ga  Ga5  1  0.697399  0.605201  0.000000  1
  Ga  Ga6  1  0.302601  0.394799  -0.000000  1
