# generated using pymatgen
data_MnCoSi
_symmetry_space_group_name_H-M   'P 1'
_cell_length_a   3.65945135
_cell_length_b   5.72822799
_cell_length_c   6.86410829
_cell_angle_alpha   90.00000000
_cell_angle_beta   90.00000000
_cell_angle_gamma   90.00000000
_symmetry_Int_Tables_number   1
_chemical_formula_structural   MnCoSi
_chemical_formula_sum   'Mn4 Co4 Si4'
_cell_volume   143.88661621
_cell_formula_units_Z   4
loop_
 _symmetry_equiv_pos_site_id
 _symmetry_equiv_pos_as_xyz
  1  'x, y, z'
loop_
 _atom_site_type_symbol
 _atom_site_label
 _atom_site_symmetry_multiplicity
 _atom_site_fract_x
 _atom_site_fract_y
 _atom_site_fract_z
 _atom_site_occupancy
  Si  Si0  1  0.250000  0.266642  0.876900  1
  Si  Si1  1  0.750000  0.733358  0.123100  1
  Si  Si2  1  0.250000  0.766642  0.623100  1
  Si  Si3  1  0.750000  0.233358  0.376900  1
  Mn  Mn4  1  0.750000  0.972920  0.815965  1
  Mn  Mn5  1  0.250000  0.027080  0.184035  1
  Mn  Mn6  1  0.750000  0.472920  0.684035  1
  Mn  Mn7  1  0.250000  0.527080  0.315965  1
  Co  Co8  1  0.250000  0.657863  0.940184  1
  Co  Co9  1  0.750000  0.342137  0.059816  1
  Co  Co10  1  0.250000  0.157863  0.559816  1
  Co  Co11  1  0.750000  0.842137  0.440184  1
