# generated using pymatgen
data_ZrPd
_symmetry_space_group_name_H-M   'P 1'
_cell_length_a   3.39260880
_cell_length_b   4.38698542
_cell_length_c   5.48400153
_cell_angle_alpha   90.00000000
_cell_angle_beta   108.01817893
_cell_angle_gamma   90.00000000
_symmetry_Int_Tables_number   1
_chemical_formula_structural   ZrPd
_chemical_formula_sum   'Zr2 Pd2'
_cell_volume   77.61739663
_cell_formula_units_Z   2
loop_
 _symmetry_equiv_pos_site_id
 _symmetry_equiv_pos_as_xyz
  1  'x, y, z'
loop_
 _atom_site_type_symbol
 _atom_site_label
 _atom_site_symmetry_multiplicity
 _atom_site_fract_x
 _atom_site_fract_y
 _atom_site_fract_z
 _atom_site_occupancy
  Zr  Zr0  1  0.858255  0.250000  0.716510  1
  Zr  Zr1  1  0.141745  0.750000  0.283490  1
  Pd  Pd2  1  0.588443  0.250000  0.176885  1
  Pd  Pd3  1  0.411557  0.750000  0.823115  1
