# generated using pymatgen
data_MgBi
_symmetry_space_group_name_H-M   'P 1'
_cell_length_a   3.59721687
_cell_length_b   3.59721701
_cell_length_c   14.82579456
_cell_angle_alpha   90.00000000
_cell_angle_beta   90.00000000
_cell_angle_gamma   119.99999881
_symmetry_Int_Tables_number   1
_chemical_formula_structural   MgBi
_chemical_formula_sum   'Mg3 Bi3'
_cell_volume   166.14293356
_cell_formula_units_Z   3
loop_
 _symmetry_equiv_pos_site_id
 _symmetry_equiv_pos_as_xyz
  1  'x, y, z'
loop_
 _atom_site_type_symbol
 _atom_site_label
 _atom_site_symmetry_multiplicity
 _atom_site_fract_x
 _atom_site_fract_y
 _atom_site_fract_z
 _atom_site_occupancy
  Mg  Mg0  1  0.333333  0.666667  0.166667  1
  Mg  Mg1  1  -0.000000  0.000000  0.500000  1
  Mg  Mg2  1  0.666667  0.333333  0.833333  1
  Bi  Bi3  1  -0.000000  0.000000  0.000000  1
  Bi  Bi4  1  0.666667  0.333333  0.333333  1
  Bi  Bi5  1  0.333333  0.666667  0.666667  1
