# generated using pymatgen
data_Th2S5
_symmetry_space_group_name_H-M   'P 1'
_cell_length_a   7.62607267
_cell_length_b   7.64980329
_cell_length_c   10.26440538
_cell_angle_alpha   90.00000000
_cell_angle_beta   90.00000000
_cell_angle_gamma   90.00000000
_symmetry_Int_Tables_number   1
_chemical_formula_structural   Th2S5
_chemical_formula_sum   'Th8 S20'
_cell_volume   598.80442738
_cell_formula_units_Z   4
loop_
 _symmetry_equiv_pos_site_id
 _symmetry_equiv_pos_as_xyz
  1  'x, y, z'
loop_
 _atom_site_type_symbol
 _atom_site_label
 _atom_site_symmetry_multiplicity
 _atom_site_fract_x
 _atom_site_fract_y
 _atom_site_fract_z
 _atom_site_occupancy
  S  S0  1  0.000000  0.750000  0.750566  1
  S  S1  1  0.500000  0.250000  0.749434  1
  S  S2  1  0.000000  0.250000  0.249434  1
  S  S3  1  0.500000  0.750000  0.250566  1
  S  S4  1  0.637393  0.388683  0.391536  1
  S  S5  1  0.137393  0.611317  0.108464  1
  S  S6  1  0.862607  0.888683  0.108464  1
  S  S7  1  0.362607  0.111317  0.391536  1
  S  S8  1  0.362607  0.611317  0.608464  1
  S  S9  1  0.862607  0.388683  0.891536  1
  S  S10  1  0.137393  0.111317  0.891536  1
  S  S11  1  0.637393  0.888683  0.608464  1
  S  S12  1  0.099788  0.850379  0.397894  1
  S  S13  1  0.599788  0.149621  0.102106  1
  S  S14  1  0.400212  0.350379  0.102106  1
  S  S15  1  0.900212  0.649621  0.397894  1
  S  S16  1  0.900212  0.149621  0.602106  1
  S  S17  1  0.400212  0.850379  0.897894  1
  S  S18  1  0.599788  0.649621  0.897894  1
  S  S19  1  0.099788  0.350379  0.602106  1
  Th  Th20  1  0.766232  0.017825  0.854005  1
  Th  Th21  1  0.266232  0.982175  0.645995  1
  Th  Th22  1  0.733768  0.517825  0.645995  1
  Th  Th23  1  0.233768  0.482175  0.854005  1
  Th  Th24  1  0.233768  0.982175  0.145995  1
  Th  Th25  1  0.733768  0.017825  0.354005  1
  Th  Th26  1  0.266232  0.482175  0.354005  1
  Th  Th27  1  0.766232  0.517825  0.145995  1
