# generated using pymatgen
data_O2
_symmetry_space_group_name_H-M   'P 1'
_cell_length_a   5.18472460
_cell_length_b   5.18472456
_cell_length_c   5.18472450
_cell_angle_alpha   56.86540238
_cell_angle_beta   56.86540362
_cell_angle_gamma   56.86540080
_symmetry_Int_Tables_number   1
_chemical_formula_structural   O2
_chemical_formula_sum   O6
_cell_volume   91.42356608
_cell_formula_units_Z   3
loop_
 _symmetry_equiv_pos_site_id
 _symmetry_equiv_pos_as_xyz
  1  'x, y, z'
loop_
 _atom_site_type_symbol
 _atom_site_label
 _atom_site_symmetry_multiplicity
 _atom_site_fract_x
 _atom_site_fract_y
 _atom_site_fract_z
 _atom_site_occupancy
  O  O0  1  0.073118  0.931839  0.735174  1
  O  O1  1  0.931839  0.735174  0.073118  1
  O  O2  1  0.735174  0.073118  0.931839  1
  O  O3  1  0.235174  0.431839  0.573118  1
  O  O4  1  0.573118  0.235174  0.431839  1
  O  O5  1  0.431839  0.573118  0.235174  1
