# generated using pymatgen
data_Mg2VN3
_symmetry_space_group_name_H-M   'P 1'
_cell_length_a   5.82104910
_cell_length_b   9.91639608
_cell_length_c   5.11791469
_cell_angle_alpha   90.00000000
_cell_angle_beta   90.00000000
_cell_angle_gamma   90.00000000
_symmetry_Int_Tables_number   1
_chemical_formula_structural   Mg2VN3
_chemical_formula_sum   'Mg8 V4 N12'
_cell_volume   295.42562972
_cell_formula_units_Z   4
loop_
 _symmetry_equiv_pos_site_id
 _symmetry_equiv_pos_as_xyz
  1  'x, y, z'
loop_
 _atom_site_type_symbol
 _atom_site_label
 _atom_site_symmetry_multiplicity
 _atom_site_fract_x
 _atom_site_fract_y
 _atom_site_fract_z
 _atom_site_occupancy
  Mg  Mg0  1  0.333673  0.664887  0.521326  1
  Mg  Mg1  1  0.333673  0.335113  0.521326  1
  Mg  Mg2  1  0.666327  0.335113  0.021326  1
  Mg  Mg3  1  0.666327  0.664887  0.021326  1
  Mg  Mg4  1  0.833673  0.164887  0.521326  1
  Mg  Mg5  1  0.833673  0.835113  0.521326  1
  Mg  Mg6  1  0.166327  0.835113  0.021326  1
  Mg  Mg7  1  0.166327  0.164887  0.021326  1
  V  V8  1  0.836536  0.500000  0.517708  1
  V  V9  1  0.163464  0.500000  0.017708  1
  V  V10  1  0.336536  -0.000000  0.517708  1
  V  V11  1  0.663464  -0.000000  0.017708  1
  N  N12  1  0.316369  0.648664  0.106805  1
  N  N13  1  0.316369  0.351336  0.106805  1
  N  N14  1  0.683631  0.351336  0.606805  1
  N  N15  1  0.683631  0.648664  0.606805  1
  N  N16  1  0.863444  0.500000  0.154032  1
  N  N17  1  0.136556  0.500000  0.654032  1
  N  N18  1  0.816369  0.148664  0.106805  1
  N  N19  1  0.816369  0.851336  0.106805  1
  N  N20  1  0.183631  0.851336  0.606805  1
  N  N21  1  0.183631  0.148664  0.606805  1
  N  N22  1  0.363444  -0.000000  0.154032  1
  N  N23  1  0.636556  -0.000000  0.654032  1
