# generated using pymatgen
data_Rb
_symmetry_space_group_name_H-M   'P 1'
_cell_length_a   8.79405988
_cell_length_b   8.79405988
_cell_length_c   10.03427917
_cell_angle_alpha   90.00000000
_cell_angle_beta   90.00000000
_cell_angle_gamma   109.79584826
_symmetry_Int_Tables_number   1
_chemical_formula_structural   Rb
_chemical_formula_sum   Rb8
_cell_volume   730.14806185
_cell_formula_units_Z   8
loop_
 _symmetry_equiv_pos_site_id
 _symmetry_equiv_pos_as_xyz
  1  'x, y, z'
loop_
 _atom_site_type_symbol
 _atom_site_label
 _atom_site_symmetry_multiplicity
 _atom_site_fract_x
 _atom_site_fract_y
 _atom_site_fract_z
 _atom_site_occupancy
  Rb  Rb0  1  0.250021  0.749979  0.000000  1
  Rb  Rb1  1  0.249979  0.750021  0.500000  1
  Rb  Rb2  1  0.749979  0.250021  0.000000  1
  Rb  Rb3  1  0.750021  0.249979  0.500000  1
  Rb  Rb4  1  0.251506  0.251506  0.248608  1
  Rb  Rb5  1  0.248494  0.248494  0.748608  1
  Rb  Rb6  1  0.751506  0.751506  0.251392  1
  Rb  Rb7  1  0.748494  0.748494  0.751392  1
