# generated using pymatgen
data_O2
_symmetry_space_group_name_H-M   'P 1'
_cell_length_a   4.25189938
_cell_length_b   5.16074138
_cell_length_c   5.16074138
_cell_angle_alpha   71.97975354
_cell_angle_beta   109.92117825
_cell_angle_gamma   109.92117825
_symmetry_Int_Tables_number   1
_chemical_formula_structural   O2
_chemical_formula_sum   O8
_cell_volume   97.67332322
_cell_formula_units_Z   4
loop_
 _symmetry_equiv_pos_site_id
 _symmetry_equiv_pos_as_xyz
  1  'x, y, z'
loop_
 _atom_site_type_symbol
 _atom_site_label
 _atom_site_symmetry_multiplicity
 _atom_site_fract_x
 _atom_site_fract_y
 _atom_site_fract_z
 _atom_site_occupancy
  O  O0  1  0.853127  0.154660  0.154660  1
  O  O1  1  0.840388  0.717901  0.217549  1
  O  O2  1  0.172555  0.219426  0.219426  1
  O  O3  1  0.159612  0.782451  0.282100  1
  O  O4  1  0.840388  0.217549  0.717901  1
  O  O5  1  0.827445  0.780574  0.780574  1
  O  O6  1  0.159612  0.282100  0.782451  1
  O  O7  1  0.146873  0.845340  0.845340  1
