# generated using pymatgen
data_Co(AsO3)2
_symmetry_space_group_name_H-M   'P 1'
_cell_length_a   4.86239668
_cell_length_b   4.86242266
_cell_length_c   4.56055133
_cell_angle_alpha   89.99801856
_cell_angle_beta   90.00396291
_cell_angle_gamma   119.99982325
_symmetry_Int_Tables_number   1
_chemical_formula_structural   Co(AsO3)2
_chemical_formula_sum   'Co1 As2 O6'
_cell_volume   93.37956489
_cell_formula_units_Z   1
loop_
 _symmetry_equiv_pos_site_id
 _symmetry_equiv_pos_as_xyz
  1  'x, y, z'
loop_
 _atom_site_type_symbol
 _atom_site_label
 _atom_site_symmetry_multiplicity
 _atom_site_fract_x
 _atom_site_fract_y
 _atom_site_fract_z
 _atom_site_occupancy
  O  O0  1  0.362796  0.000000  0.274352  1
  O  O1  1  0.362807  0.362803  0.725660  1
  O  O2  1  0.000004  0.637197  0.725660  1
  Co  Co3  1  0.000000  0.000000  1.000000  1
  O  O4  1  0.637192  0.637196  0.274340  1
  O  O5  1  0.637204  0.000000  0.725647  1
  O  O6  1  0.999996  0.362804  0.274340  1
  As  As7  1  0.333351  0.666703  0.500001  1
  As  As8  1  0.666649  0.333297  0.500001  1
