# generated using pymatgen
data_TbGe
_symmetry_space_group_name_H-M   'P 1'
_cell_length_a   5.82210883
_cell_length_b   5.82210883
_cell_length_c   3.97053057
_cell_angle_alpha   90.00000000
_cell_angle_beta   90.00000000
_cell_angle_gamma   136.36461581
_symmetry_Int_Tables_number   1
_chemical_formula_structural   TbGe
_chemical_formula_sum   'Tb2 Ge2'
_cell_volume   92.87529690
_cell_formula_units_Z   2
loop_
 _symmetry_equiv_pos_site_id
 _symmetry_equiv_pos_as_xyz
  1  'x, y, z'
loop_
 _atom_site_type_symbol
 _atom_site_label
 _atom_site_symmetry_multiplicity
 _atom_site_fract_x
 _atom_site_fract_y
 _atom_site_fract_z
 _atom_site_occupancy
  Tb  Tb0  1  0.861100  0.138900  0.250000  1
  Tb  Tb1  1  0.138900  0.861100  0.750000  1
  Ge  Ge2  1  0.584108  0.415892  0.250000  1
  Ge  Ge3  1  0.415892  0.584108  0.750000  1
