# generated using pymatgen
data_YbMnO3
_symmetry_space_group_name_H-M   'P 1'
_cell_length_a   6.08290779
_cell_length_b   6.08290780
_cell_length_c   11.68361056
_cell_angle_alpha   90.00000000
_cell_angle_beta   90.00000000
_cell_angle_gamma   120.00000002
_symmetry_Int_Tables_number   1
_chemical_formula_structural   YbMnO3
_chemical_formula_sum   'Yb6 Mn6 O18'
_cell_volume   374.39511269
_cell_formula_units_Z   6
loop_
 _symmetry_equiv_pos_site_id
 _symmetry_equiv_pos_as_xyz
  1  'x, y, z'
loop_
 _atom_site_type_symbol
 _atom_site_label
 _atom_site_symmetry_multiplicity
 _atom_site_fract_x
 _atom_site_fract_y
 _atom_site_fract_z
 _atom_site_occupancy
  O  O0  1  0.666667  0.333333  0.015862  1
  O  O1  1  0.333333  0.666667  0.515861  1
  O  O2  1  0.666667  0.333333  0.515861  1
  O  O3  1  0.333333  0.666667  0.015862  1
  O  O4  1  0.000000  0.000000  0.978139  1
  O  O5  1  0.000000  0.000000  0.478139  1
  O  O6  1  0.361144  0.000000  0.843106  1
  O  O7  1  0.361144  0.361144  0.343106  1
  O  O8  1  0.000000  0.638856  0.343106  1
  O  O9  1  0.000000  0.361144  0.843106  1
  O  O10  1  0.638856  0.638856  0.843106  1
  O  O11  1  0.638856  0.000000  0.343106  1
  O  O12  1  0.305404  0.000000  0.157576  1
  O  O13  1  0.305404  0.305404  0.657576  1
  O  O14  1  0.000000  0.694596  0.657576  1
  O  O15  1  0.000000  0.305404  0.157576  1
  O  O16  1  0.694596  0.694596  0.157576  1
  O  O17  1  0.694596  0.000000  0.657576  1
  Mn  Mn18  1  0.668172  0.000000  0.500108  1
  Mn  Mn19  1  0.668172  0.668172  0.000108  1
  Mn  Mn20  1  0.000000  0.331828  0.000108  1
  Mn  Mn21  1  0.000000  0.668172  0.500108  1
  Mn  Mn22  1  0.331828  0.331828  0.500108  1
  Mn  Mn23  1  0.331828  0.000000  0.000108  1
  Yb  Yb24  1  0.666667  0.333333  0.235241  1
  Yb  Yb25  1  0.333333  0.666667  0.735241  1
  Yb  Yb26  1  0.666667  0.333333  0.735241  1
  Yb  Yb27  1  0.333333  0.666667  0.235241  1
  Yb  Yb28  1  0.000000  0.000000  0.773286  1
  Yb  Yb29  1  0.000000  0.000000  0.273286  1
