# generated using pymatgen
data_TaS2
_symmetry_space_group_name_H-M   'P 1'
_cell_length_a   3.34167340
_cell_length_b   3.34167327
_cell_length_c   11.37208415
_cell_angle_alpha   94.22669544
_cell_angle_beta   94.22669529
_cell_angle_gamma   119.89165693
_symmetry_Int_Tables_number   1
_chemical_formula_structural   TaS2
_chemical_formula_sum   'Ta1 S2'
_cell_volume   108.89733450
_cell_formula_units_Z   1
loop_
 _symmetry_equiv_pos_site_id
 _symmetry_equiv_pos_as_xyz
  1  'x, y, z'
loop_
 _atom_site_type_symbol
 _atom_site_label
 _atom_site_symmetry_multiplicity
 _atom_site_fract_x
 _atom_site_fract_y
 _atom_site_fract_z
 _atom_site_occupancy
  Ta  Ta0  1  0.925511  0.074489  0.000000  1
  S  S1  1  0.328763  0.810274  0.139036  1
  S  S2  1  0.189726  0.671237  0.860964  1
