# generated using pymatgen
data_Zn2ReN3
_symmetry_space_group_name_H-M   'P 1'
_cell_length_a   5.74816538
_cell_length_b   5.60216198
_cell_length_c   5.29889933
_cell_angle_alpha   90.00000000
_cell_angle_beta   90.00000000
_cell_angle_gamma   119.16327024
_symmetry_Int_Tables_number   1
_chemical_formula_structural   Zn2ReN3
_chemical_formula_sum   'Zn4 Re2 N6'
_cell_volume   149.00524023
_cell_formula_units_Z   2
loop_
 _symmetry_equiv_pos_site_id
 _symmetry_equiv_pos_as_xyz
  1  'x, y, z'
loop_
 _atom_site_type_symbol
 _atom_site_label
 _atom_site_symmetry_multiplicity
 _atom_site_fract_x
 _atom_site_fract_y
 _atom_site_fract_z
 _atom_site_occupancy
  Zn  Zn0  1  0.333006  0.806140  0.479375  1
  Zn  Zn1  1  0.666994  0.473134  0.479375  1
  Zn  Zn2  1  0.666994  0.193860  0.979375  1
  Zn  Zn3  1  0.333006  0.526866  0.979375  1
  Re  Re4  1  0.000000  0.870113  0.944342  1
  Re  Re5  1  1.000000  0.129887  0.444342  1
  N  N6  1  0.318715  0.869309  0.862642  1
  N  N7  1  0.681285  0.550595  0.862642  1
  N  N8  1  0.681285  0.130691  0.362642  1
  N  N9  1  0.318715  0.449405  0.362642  1
  N  N10  1  1.000000  0.801939  0.316002  1
  N  N11  1  0.000000  0.198061  0.816002  1
