# generated using pymatgen
data_Dy2Fe2Si2C
_symmetry_space_group_name_H-M   'P 1'
_cell_length_a   3.92691638
_cell_length_b   5.63683261
_cell_length_c   5.65084330
_cell_angle_alpha   73.31639925
_cell_angle_beta   69.66778923
_cell_angle_gamma   69.61500931
_symmetry_Int_Tables_number   1
_chemical_formula_structural   Dy2Fe2Si2C
_chemical_formula_sum   'Dy2 Fe2 Si2 C1'
_cell_volume   107.96468074
_cell_formula_units_Z   1
loop_
 _symmetry_equiv_pos_site_id
 _symmetry_equiv_pos_as_xyz
  1  'x, y, z'
loop_
 _atom_site_type_symbol
 _atom_site_label
 _atom_site_symmetry_multiplicity
 _atom_site_fract_x
 _atom_site_fract_y
 _atom_site_fract_z
 _atom_site_occupancy
  C  C0  1  0.500000  0.500000  0.500000  1
  Si  Si1  1  0.662168  0.892500  0.783164  1
  Si  Si2  1  0.337832  0.107500  0.216836  1
  Fe  Fe3  1  0.298912  0.806643  0.595534  1
  Fe  Fe4  1  0.701088  0.193357  0.404466  1
  Dy  Dy5  1  0.059044  0.675538  0.206374  1
  Dy  Dy6  1  0.940956  0.324462  0.793626  1
