# generated using pymatgen
data_MoS2
_symmetry_space_group_name_H-M   'P 1'
_cell_length_a   3.19396459
_cell_length_b   5.53009229
_cell_length_c   6.85544940
_cell_angle_alpha   97.68745897
_cell_angle_beta   76.52914480
_cell_angle_gamma   89.99999701
_symmetry_Int_Tables_number   1
_chemical_formula_structural   MoS2
_chemical_formula_sum   'Mo2 S4'
_cell_volume   116.63661098
_cell_formula_units_Z   2
loop_
 _symmetry_equiv_pos_site_id
 _symmetry_equiv_pos_as_xyz
  1  'x, y, z'
loop_
 _atom_site_type_symbol
 _atom_site_label
 _atom_site_symmetry_multiplicity
 _atom_site_fract_x
 _atom_site_fract_y
 _atom_site_fract_z
 _atom_site_occupancy
  Mo  Mo0  1  -0.000041  0.000026  0.000082  1
  Mo  Mo1  1  0.499960  0.500041  0.000080  1
  S  S2  1  0.118707  0.627245  0.762587  1
  S  S3  1  0.618706  0.127238  0.762588  1
  S  S4  1  0.381283  0.206073  0.237434  1
  S  S5  1  0.881285  0.706078  0.237430  1
