# generated using pymatgen
data_Tl2CuF4
_symmetry_space_group_name_H-M   'P 1'
_cell_length_a   4.21649853
_cell_length_b   4.21649853
_cell_length_c   7.50922159
_cell_angle_alpha   106.30525277
_cell_angle_beta   106.30525277
_cell_angle_gamma   90.00000000
_symmetry_Int_Tables_number   1
_chemical_formula_structural   Tl2CuF4
_chemical_formula_sum   'Tl2 Cu1 F4'
_cell_volume   122.53101850
_cell_formula_units_Z   1
loop_
 _symmetry_equiv_pos_site_id
 _symmetry_equiv_pos_as_xyz
  1  'x, y, z'
loop_
 _atom_site_type_symbol
 _atom_site_label
 _atom_site_symmetry_multiplicity
 _atom_site_fract_x
 _atom_site_fract_y
 _atom_site_fract_z
 _atom_site_occupancy
  Tl  Tl0  1  0.354882  0.354882  0.709765  1
  Tl  Tl1  1  0.645118  0.645118  0.290235  1
  Cu  Cu2  1  0.000000  0.000000  0.000000  1
  F  F3  1  0.141733  0.141733  0.283466  1
  F  F4  1  0.858267  0.858267  0.716534  1
  F  F5  1  -0.000000  0.500000  -0.000000  1
  F  F6  1  0.500000  -0.000000  -0.000000  1
