# generated using pymatgen
data_TmGa2
_symmetry_space_group_name_H-M   'P 1'
_cell_length_a   4.22094270
_cell_length_b   5.74945518
_cell_length_c   5.74945519
_cell_angle_alpha   73.85247776
_cell_angle_beta   68.46476843
_cell_angle_gamma   68.46476848
_symmetry_Int_Tables_number   1
_chemical_formula_structural   TmGa2
_chemical_formula_sum   'Tm2 Ga4'
_cell_volume   119.05920297
_cell_formula_units_Z   2
loop_
 _symmetry_equiv_pos_site_id
 _symmetry_equiv_pos_as_xyz
  1  'x, y, z'
loop_
 _atom_site_type_symbol
 _atom_site_label
 _atom_site_symmetry_multiplicity
 _atom_site_fract_x
 _atom_site_fract_y
 _atom_site_fract_z
 _atom_site_occupancy
  Ga  Ga0  1  0.340176  0.108722  0.710926  1
  Ga  Ga1  1  0.659824  0.891278  0.289074  1
  Ga  Ga2  1  0.659824  0.289074  0.891278  1
  Ga  Ga3  1  0.340176  0.710926  0.108722  1
  Tm  Tm4  1  0.939219  0.310781  0.310781  1
  Tm  Tm5  1  0.060781  0.689219  0.689219  1
