# generated using pymatgen
data_Ho(TiGa2)2
_symmetry_space_group_name_H-M   'P 1'
_cell_length_a   5.45731965
_cell_length_b   5.49996456
_cell_length_c   5.49996456
_cell_angle_alpha   75.75089257
_cell_angle_beta   60.25615964
_cell_angle_gamma   60.25615964
_symmetry_Int_Tables_number   1
_chemical_formula_structural   Ho(TiGa2)2
_chemical_formula_sum   'Ho1 Ti2 Ga4'
_cell_volume   124.44885774
_cell_formula_units_Z   1
loop_
 _symmetry_equiv_pos_site_id
 _symmetry_equiv_pos_as_xyz
  1  'x, y, z'
loop_
 _atom_site_type_symbol
 _atom_site_label
 _atom_site_symmetry_multiplicity
 _atom_site_fract_x
 _atom_site_fract_y
 _atom_site_fract_z
 _atom_site_occupancy
  Ho  Ho0  1  0.000000  0.000000  0.000000  1
  Ti  Ti1  1  0.250000  0.500000  0.500000  1
  Ti  Ti2  1  0.750000  0.500000  0.500000  1
  Ga  Ga3  1  0.302448  0.000000  0.395105  1
  Ga  Ga4  1  0.697552  0.000000  0.604895  1
  Ga  Ga5  1  0.697552  0.604895  -0.000000  1
  Ga  Ga6  1  0.302448  0.395105  0.000000  1
