# generated using pymatgen
data_CaSn(BO3)2
_symmetry_space_group_name_H-M   'P 1'
_cell_length_a   6.14354525
_cell_length_b   6.14354524
_cell_length_c   6.14354524
_cell_angle_alpha   47.20608770
_cell_angle_beta   47.20608766
_cell_angle_gamma   47.20608767
_symmetry_Int_Tables_number   1
_chemical_formula_structural   CaSn(BO3)2
_chemical_formula_sum   'Ca1 Sn1 B2 O6'
_cell_volume   114.18502908
_cell_formula_units_Z   1
loop_
 _symmetry_equiv_pos_site_id
 _symmetry_equiv_pos_as_xyz
  1  'x, y, z'
loop_
 _atom_site_type_symbol
 _atom_site_label
 _atom_site_symmetry_multiplicity
 _atom_site_fract_x
 _atom_site_fract_y
 _atom_site_fract_z
 _atom_site_occupancy
  B  B0  1  0.760691  0.760691  0.760691  1
  B  B1  1  0.239309  0.239309  0.239309  1
  O  O2  1  0.730121  0.491210  0.052652  1
  O  O3  1  0.052652  0.730121  0.491210  1
  O  O4  1  0.508790  0.947348  0.269879  1
  O  O5  1  0.269879  0.508790  0.947348  1
  O  O6  1  0.947348  0.269879  0.508790  1
  O  O7  1  0.491210  0.052652  0.730121  1
  Ca  Ca8  1  0.000000  0.000000  0.000000  1
  Sn  Sn9  1  0.500000  0.500000  0.500000  1
