# generated using pymatgen
data_Al2O3
_symmetry_space_group_name_H-M   'P 1'
_cell_length_a   4.88469386
_cell_length_b   8.39755725
_cell_length_c   9.02826574
_cell_angle_alpha   90.00000000
_cell_angle_beta   90.00000000
_cell_angle_gamma   90.00000000
_symmetry_Int_Tables_number   1
_chemical_formula_structural   Al2O3
_chemical_formula_sum   'Al16 O24'
_cell_volume   370.33491346
_cell_formula_units_Z   8
loop_
 _symmetry_equiv_pos_site_id
 _symmetry_equiv_pos_as_xyz
  1  'x, y, z'
loop_
 _atom_site_type_symbol
 _atom_site_label
 _atom_site_symmetry_multiplicity
 _atom_site_fract_x
 _atom_site_fract_y
 _atom_site_fract_z
 _atom_site_occupancy
  O  O0  1  0.655874  0.660924  0.267905  1
  O  O1  1  0.344126  0.339076  0.767905  1
  O  O2  1  0.844126  0.160924  0.767905  1
  O  O3  1  0.155874  0.839076  0.267905  1
  O  O4  1  0.481652  0.168733  0.509578  1
  O  O5  1  0.518348  0.831267  0.009578  1
  O  O6  1  0.018349  0.668733  0.009578  1
  O  O7  1  0.981652  0.331267  0.509578  1
  O  O8  1  0.656679  0.001185  0.274399  1
  O  O9  1  0.343321  0.998815  0.774399  1
  O  O10  1  0.843321  0.501185  0.774399  1
  O  O11  1  0.156679  0.498815  0.274399  1
  O  O12  1  0.656722  0.331262  0.242154  1
  O  O13  1  0.343278  0.668738  0.742154  1
  O  O14  1  0.843278  0.831262  0.742154  1
  O  O15  1  0.156722  0.168738  0.242154  1
  O  O16  1  0.478242  0.824221  0.496859  1
  O  O17  1  0.521758  0.175779  0.996859  1
  O  O18  1  0.021758  0.324221  0.996859  1
  O  O19  1  0.978242  0.675779  0.496859  1
  O  O20  1  0.521836  0.511685  0.503840  1
  O  O21  1  0.478164  0.488315  0.003840  1
  O  O22  1  0.978164  0.011685  0.003840  1
  O  O23  1  0.021836  0.988315  0.503840  1
  Al  Al24  1  0.815537  0.839873  0.378279  1
  Al  Al25  1  0.184463  0.160127  0.878279  1
  Al  Al26  1  0.684463  0.339873  0.878279  1
  Al  Al27  1  0.315537  0.660127  0.378279  1
  Al  Al28  1  0.823088  0.152459  0.569188  1
  Al  Al29  1  0.176912  0.847541  0.069188  1
  Al  Al30  1  0.676912  0.652459  0.069188  1
  Al  Al31  1  0.323088  0.347541  0.569188  1
  Al  Al32  1  0.826504  0.468930  0.368304  1
  Al  Al33  1  0.173496  0.531070  0.868304  1
  Al  Al34  1  0.673496  0.968930  0.868304  1
  Al  Al35  1  0.326504  0.031070  0.368304  1
  Al  Al36  1  0.686429  0.653600  0.656894  1
  Al  Al37  1  0.313571  0.346400  0.156894  1
  Al  Al38  1  0.813571  0.153600  0.156894  1
  Al  Al39  1  0.186429  0.846400  0.656894  1
