# generated using pymatgen
data_Sb2Se3
_symmetry_space_group_name_H-M   'P 1'
_cell_length_a   4.02993740
_cell_length_b   11.54142749
_cell_length_c   12.84294570
_cell_angle_alpha   90.00000000
_cell_angle_beta   90.00000000
_cell_angle_gamma   90.00000000
_symmetry_Int_Tables_number   1
_chemical_formula_structural   Sb2Se3
_chemical_formula_sum   'Sb8 Se12'
_cell_volume   597.34120507
_cell_formula_units_Z   4
loop_
 _symmetry_equiv_pos_site_id
 _symmetry_equiv_pos_as_xyz
  1  'x, y, z'
loop_
 _atom_site_type_symbol
 _atom_site_label
 _atom_site_symmetry_multiplicity
 _atom_site_fract_x
 _atom_site_fract_y
 _atom_site_fract_z
 _atom_site_occupancy
  Se  Se0  1  0.750000  0.132860  0.952689  1
  Se  Se1  1  0.250000  0.867140  0.047311  1
  Se  Se2  1  0.250000  0.632860  0.547311  1
  Se  Se3  1  0.750000  0.367140  0.452689  1
  Se  Se4  1  0.250000  0.190625  0.204171  1
  Se  Se5  1  0.750000  0.809375  0.795829  1
  Se  Se6  1  0.750000  0.690625  0.295829  1
  Se  Se7  1  0.250000  0.309375  0.704171  1
  Se  Se8  1  0.750000  0.047470  0.627488  1
  Se  Se9  1  0.250000  0.952530  0.372512  1
  Se  Se10  1  0.250000  0.547470  0.872512  1
  Se  Se11  1  0.750000  0.452530  0.127488  1
  Sb  Sb12  1  0.750000  0.036442  0.137589  1
  Sb  Sb13  1  0.250000  0.963558  0.862411  1
  Sb  Sb14  1  0.250000  0.536442  0.362411  1
  Sb  Sb15  1  0.750000  0.463558  0.637589  1
  Sb  Sb16  1  0.250000  0.331799  0.035783  1
  Sb  Sb17  1  0.750000  0.668201  0.964217  1
  Sb  Sb18  1  0.750000  0.831799  0.464217  1
  Sb  Sb19  1  0.250000  0.168201  0.535783  1
