# generated using pymatgen
data_Fe(BMo)2
_symmetry_space_group_name_H-M   'P 1'
_cell_length_a   2.82010891
_cell_length_b   6.39517204
_cell_length_c   6.39517204
_cell_angle_alpha   90.00000000
_cell_angle_beta   90.00000000
_cell_angle_gamma   90.00000000
_symmetry_Int_Tables_number   1
_chemical_formula_structural   Fe(BMo)2
_chemical_formula_sum   'Fe2 B4 Mo4'
_cell_volume   115.33744991
_cell_formula_units_Z   2
loop_
 _symmetry_equiv_pos_site_id
 _symmetry_equiv_pos_as_xyz
  1  'x, y, z'
loop_
 _atom_site_type_symbol
 _atom_site_label
 _atom_site_symmetry_multiplicity
 _atom_site_fract_x
 _atom_site_fract_y
 _atom_site_fract_z
 _atom_site_occupancy
  B  B0  1  0.500000  0.842415  0.342415  1
  B  B1  1  0.500000  0.157584  0.657585  1
  B  B2  1  0.500000  0.657585  0.842415  1
  B  B3  1  0.500000  0.342415  0.157584  1
  Fe  Fe4  1  0.000000  0.500000  0.500000  1
  Fe  Fe5  1  0.000000  0.000000  0.000000  1
  Mo  Mo6  1  0.000000  0.857606  0.642394  1
  Mo  Mo7  1  0.000000  0.142394  0.357606  1
  Mo  Mo8  1  0.000000  0.357606  0.857606  1
  Mo  Mo9  1  0.000000  0.642394  0.142394  1
