# generated using pymatgen
data_Zr3GeO8
_symmetry_space_group_name_H-M   'P 1'
_cell_length_a   5.07385665
_cell_length_b   5.07385115
_cell_length_c   6.41483726
_cell_angle_alpha   113.30618384
_cell_angle_beta   113.30612808
_cell_angle_gamma   90.00126467
_symmetry_Int_Tables_number   1
_chemical_formula_structural   Zr3GeO8
_chemical_formula_sum   'Zr3 Ge1 O8'
_cell_volume   136.87245206
_cell_formula_units_Z   1
loop_
 _symmetry_equiv_pos_site_id
 _symmetry_equiv_pos_as_xyz
  1  'x, y, z'
loop_
 _atom_site_type_symbol
 _atom_site_label
 _atom_site_symmetry_multiplicity
 _atom_site_fract_x
 _atom_site_fract_y
 _atom_site_fract_z
 _atom_site_occupancy
  Zr  Zr0  1  0.499989  0.499989  0.000012  1
  Zr  Zr1  1  0.250151  0.750119  0.500039  1
  Zr  Zr2  1  0.750118  0.250150  0.500039  1
  Ge  Ge3  1  0.999807  0.999807  0.999862  1
  O  O4  1  0.536007  0.536008  0.680645  1
  O  O5  1  0.855590  0.464075  0.319402  1
  O  O6  1  0.464074  0.855588  0.319400  1
  O  O7  1  0.144466  0.144466  0.680595  1
  O  O8  1  0.302320  0.302319  0.177710  1
  O  O9  1  0.124559  0.697560  0.822272  1
  O  O10  1  0.697560  0.124559  0.822271  1
  O  O11  1  0.875359  0.875359  0.177754  1
