# generated using pymatgen
data_KCu4S3
_symmetry_space_group_name_H-M   'P 1'
_cell_length_a   3.88105479
_cell_length_b   3.88105479
_cell_length_c   9.30947971
_cell_angle_alpha   90.00000000
_cell_angle_beta   90.00000000
_cell_angle_gamma   90.00000000
_symmetry_Int_Tables_number   1
_chemical_formula_structural   KCu4S3
_chemical_formula_sum   'K1 Cu4 S3'
_cell_volume   140.22484138
_cell_formula_units_Z   1
loop_
 _symmetry_equiv_pos_site_id
 _symmetry_equiv_pos_as_xyz
  1  'x, y, z'
loop_
 _atom_site_type_symbol
 _atom_site_label
 _atom_site_symmetry_multiplicity
 _atom_site_fract_x
 _atom_site_fract_y
 _atom_site_fract_z
 _atom_site_occupancy
  S  S0  1  0.500000  0.500000  0.705073  1
  S  S1  1  0.500000  0.500000  0.294927  1
  S  S2  1  0.000000  0.000000  0.000000  1
  K  K3  1  0.000000  0.000000  0.500000  1
  Cu  Cu4  1  0.500000  0.000000  0.839306  1
  Cu  Cu5  1  0.000000  0.500000  0.160694  1
  Cu  Cu6  1  0.500000  0.000000  0.160694  1
  Cu  Cu7  1  0.000000  0.500000  0.839306  1
