# generated using pymatgen
data_GdBr3
_symmetry_space_group_name_H-M   'P 1'
_cell_length_a   7.29829100
_cell_length_b   7.32723928
_cell_length_c   7.32723936
_cell_angle_alpha   119.89450050
_cell_angle_beta   98.89141425
_cell_angle_gamma   98.89140822
_symmetry_Int_Tables_number   1
_chemical_formula_structural   GdBr3
_chemical_formula_sum   'Gd2 Br6'
_cell_volume   323.11460871
_cell_formula_units_Z   2
loop_
 _symmetry_equiv_pos_site_id
 _symmetry_equiv_pos_as_xyz
  1  'x, y, z'
loop_
 _atom_site_type_symbol
 _atom_site_label
 _atom_site_symmetry_multiplicity
 _atom_site_fract_x
 _atom_site_fract_y
 _atom_site_fract_z
 _atom_site_occupancy
  Gd  Gd0  1  1.000000  0.833734  0.166266  1
  Gd  Gd1  1  0.000000  0.166266  0.833734  1
  Br  Br2  1  0.767945  0.787539  0.787539  1
  Br  Br3  1  0.232055  0.212461  0.212461  1
  Br  Br4  1  0.231989  0.571162  0.932358  1
  Br  Br5  1  0.768011  0.067642  0.428838  1
  Br  Br6  1  0.768011  0.428838  0.067642  1
  Br  Br7  1  0.231989  0.932358  0.571162  1
