# generated using pymatgen
data_HfAl3
_symmetry_space_group_name_H-M   'P 1'
_cell_length_a   3.94837767
_cell_length_b   3.94837767
_cell_length_c   5.25666066
_cell_angle_alpha   112.05889739
_cell_angle_beta   112.05889749
_cell_angle_gamma   89.99999989
_symmetry_Int_Tables_number   1
_chemical_formula_structural   HfAl3
_chemical_formula_sum   'Hf1 Al3'
_cell_volume   69.43562630
_cell_formula_units_Z   1
loop_
 _symmetry_equiv_pos_site_id
 _symmetry_equiv_pos_as_xyz
  1  'x, y, z'
loop_
 _atom_site_type_symbol
 _atom_site_label
 _atom_site_symmetry_multiplicity
 _atom_site_fract_x
 _atom_site_fract_y
 _atom_site_fract_z
 _atom_site_occupancy
  Al  Al0  1  0.500000  0.500000  0.000000  1
  Al  Al1  1  0.250000  0.750000  0.500000  1
  Al  Al2  1  0.750000  0.250000  0.500000  1
  Hf  Hf3  1  0.000000  0.000000  0.000000  1
