# generated using pymatgen
data_LiHO
_symmetry_space_group_name_H-M   'P 1'
_cell_length_a   3.58822912
_cell_length_b   3.58822973
_cell_length_c   4.40348695
_cell_angle_alpha   90.00000000
_cell_angle_beta   90.00000000
_cell_angle_gamma   90.00000000
_symmetry_Int_Tables_number   1
_chemical_formula_structural   LiHO
_chemical_formula_sum   'Li2 H2 O2'
_cell_volume   56.69661363
_cell_formula_units_Z   2
loop_
 _symmetry_equiv_pos_site_id
 _symmetry_equiv_pos_as_xyz
  1  'x, y, z'
loop_
 _atom_site_type_symbol
 _atom_site_label
 _atom_site_symmetry_multiplicity
 _atom_site_fract_x
 _atom_site_fract_y
 _atom_site_fract_z
 _atom_site_occupancy
  O  O0  1  0.500000  0.000000  0.806542  1
  Li  Li1  1  0.000000  0.000000  0.000000  1
  O  O2  1  0.000000  0.500000  0.193458  1
  H  H3  1  0.000000  0.500000  0.414029  1
  H  H4  1  0.500000  0.000000  0.585971  1
  Li  Li5  1  0.500000  0.500000  1.000000  1
