# generated using pymatgen
data_IBr
_symmetry_space_group_name_H-M   'P 1'
_cell_length_a   5.00867528
_cell_length_b   5.00867528
_cell_length_c   8.81636004
_cell_angle_alpha   90.00000000
_cell_angle_beta   90.00000000
_cell_angle_gamma   114.58021582
_symmetry_Int_Tables_number   1
_chemical_formula_structural   IBr
_chemical_formula_sum   'I2 Br2'
_cell_volume   201.13162971
_cell_formula_units_Z   2
loop_
 _symmetry_equiv_pos_site_id
 _symmetry_equiv_pos_as_xyz
  1  'x, y, z'
loop_
 _atom_site_type_symbol
 _atom_site_label
 _atom_site_symmetry_multiplicity
 _atom_site_fract_x
 _atom_site_fract_y
 _atom_site_fract_z
 _atom_site_occupancy
  Br  Br0  1  0.799039  0.799039  0.375305  1
  Br  Br1  1  0.200961  0.200961  0.875305  1
  I  I2  1  0.500423  0.500423  0.625595  1
  I  I3  1  0.499577  0.499577  0.125595  1
