# generated using pymatgen
data_CaC2
_symmetry_space_group_name_H-M   'P 1'
_cell_length_a   3.89463691
_cell_length_b   3.89463691
_cell_length_c   4.22141762
_cell_angle_alpha   117.47069714
_cell_angle_beta   117.47069726
_cell_angle_gamma   90.00000000
_symmetry_Int_Tables_number   1
_chemical_formula_structural   CaC2
_chemical_formula_sum   'Ca1 C2'
_cell_volume   48.52938460
_cell_formula_units_Z   1
loop_
 _symmetry_equiv_pos_site_id
 _symmetry_equiv_pos_as_xyz
  1  'x, y, z'
loop_
 _atom_site_type_symbol
 _atom_site_label
 _atom_site_symmetry_multiplicity
 _atom_site_fract_x
 _atom_site_fract_y
 _atom_site_fract_z
 _atom_site_occupancy
  C  C0  1  0.598631  0.598631  0.197261  1
  C  C1  1  0.401369  0.401369  0.802739  1
  Ca  Ca2  1  0.000000  0.000000  0.000000  1
