# generated using pymatgen
data_K2PdF4
_symmetry_space_group_name_H-M   'P 1'
_cell_length_a   4.30699557
_cell_length_b   5.82626057
_cell_length_c   5.82626064
_cell_angle_alpha   62.73954493
_cell_angle_beta   87.64696961
_cell_angle_gamma   87.64697055
_symmetry_Int_Tables_number   1
_chemical_formula_structural   K2PdF4
_chemical_formula_sum   'K2 Pd1 F4'
_cell_volume   129.81380413
_cell_formula_units_Z   1
loop_
 _symmetry_equiv_pos_site_id
 _symmetry_equiv_pos_as_xyz
  1  'x, y, z'
loop_
 _atom_site_type_symbol
 _atom_site_label
 _atom_site_symmetry_multiplicity
 _atom_site_fract_x
 _atom_site_fract_y
 _atom_site_fract_z
 _atom_site_occupancy
  K  K0  1  0.278761  0.654873  0.654873  1
  K  K1  1  0.721239  0.345127  0.345127  1
  Pd  Pd2  1  0.000000  0.000000  0.000000  1
  F  F3  1  0.783867  0.873963  0.346218  1
  F  F4  1  0.216133  0.653782  0.126037  1
  F  F5  1  0.216133  0.126037  0.653782  1
  F  F6  1  0.783867  0.346218  0.873963  1
