# generated using pymatgen
data_Nb3TeCl7
_symmetry_space_group_name_H-M   'P 1'
_cell_length_a   6.98570119
_cell_length_b   6.98570119
_cell_length_c   13.79208973
_cell_angle_alpha   90.00000000
_cell_angle_beta   90.00000000
_cell_angle_gamma   120.00000005
_symmetry_Int_Tables_number   1
_chemical_formula_structural   Nb3TeCl7
_chemical_formula_sum   'Nb6 Te2 Cl14'
_cell_volume   582.88209563
_cell_formula_units_Z   2
loop_
 _symmetry_equiv_pos_site_id
 _symmetry_equiv_pos_as_xyz
  1  'x, y, z'
loop_
 _atom_site_type_symbol
 _atom_site_label
 _atom_site_symmetry_multiplicity
 _atom_site_fract_x
 _atom_site_fract_y
 _atom_site_fract_z
 _atom_site_occupancy
  Cl  Cl0  1  0.832472  0.167528  0.334558  1
  Cl  Cl1  1  0.832472  0.664944  0.334558  1
  Cl  Cl2  1  0.335056  0.167528  0.334558  1
  Cl  Cl3  1  0.664944  0.832472  0.665442  1
  Cl  Cl4  1  0.167528  0.335056  0.665442  1
  Cl  Cl5  1  0.167528  0.832472  0.665442  1
  Cl  Cl6  1  0.169325  0.830675  0.126349  1
  Cl  Cl7  1  0.169325  0.338651  0.126349  1
  Cl  Cl8  1  0.333333  0.666667  0.858239  1
  Cl  Cl9  1  0.666667  0.333333  0.141761  1
  Cl  Cl10  1  0.830675  0.169325  0.873651  1
  Cl  Cl11  1  0.830675  0.661349  0.873651  1
  Cl  Cl12  1  0.338651  0.169325  0.873651  1
  Cl  Cl13  1  0.661349  0.830675  0.126349  1
  Nb  Nb14  1  0.526912  0.473088  0.758635  1
  Nb  Nb15  1  0.526912  0.053823  0.758635  1
  Nb  Nb16  1  0.473088  0.526912  0.241365  1
  Nb  Nb17  1  0.473088  0.946177  0.241365  1
  Nb  Nb18  1  0.053823  0.526912  0.241365  1
  Nb  Nb19  1  0.946177  0.473088  0.758635  1
  Te  Te20  1  0.666667  0.333333  0.603397  1
  Te  Te21  1  0.333333  0.666667  0.396603  1
