# generated using pymatgen
data_BaSi
_symmetry_space_group_name_H-M   'P 1'
_cell_length_a   4.13054874
_cell_length_b   5.02381107
_cell_length_c   6.64524193
_cell_angle_alpha   112.20989105
_cell_angle_beta   90.00000000
_cell_angle_gamma   90.00000000
_symmetry_Int_Tables_number   1
_chemical_formula_structural   BaSi
_chemical_formula_sum   'Ba2 Si2'
_cell_volume   127.66490596
_cell_formula_units_Z   2
loop_
 _symmetry_equiv_pos_site_id
 _symmetry_equiv_pos_as_xyz
  1  'x, y, z'
loop_
 _atom_site_type_symbol
 _atom_site_label
 _atom_site_symmetry_multiplicity
 _atom_site_fract_x
 _atom_site_fract_y
 _atom_site_fract_z
 _atom_site_occupancy
  Ba  Ba0  1  0.750000  0.641468  0.282936  1
  Ba  Ba1  1  0.250000  0.358532  0.717064  1
  Si  Si2  1  0.750000  0.942872  0.885745  1
  Si  Si3  1  0.250000  0.057128  0.114255  1
