# generated using pymatgen
data_Y2Co3Si5
_symmetry_space_group_name_H-M   'P 1'
_cell_length_a   5.54427758
_cell_length_b   7.88600415
_cell_length_c   7.88600415
_cell_angle_alpha   74.36624957
_cell_angle_beta   69.41929395
_cell_angle_gamma   69.41929390
_symmetry_Int_Tables_number   1
_chemical_formula_structural   Y2Co3Si5
_chemical_formula_sum   'Y4 Co6 Si10'
_cell_volume   297.96945423
_cell_formula_units_Z   2
loop_
 _symmetry_equiv_pos_site_id
 _symmetry_equiv_pos_as_xyz
  1  'x, y, z'
loop_
 _atom_site_type_symbol
 _atom_site_label
 _atom_site_symmetry_multiplicity
 _atom_site_fract_x
 _atom_site_fract_y
 _atom_site_fract_z
 _atom_site_occupancy
  Si  Si0  1  0.100645  0.741240  0.057469  1
  Si  Si1  1  0.899355  0.258760  0.942531  1
  Si  Si2  1  0.399355  0.942531  0.258760  1
  Si  Si3  1  0.600645  0.057469  0.741240  1
  Si  Si4  1  0.023541  0.226459  0.226459  1
  Si  Si5  1  0.476459  0.773541  0.773541  1
  Si  Si6  1  0.976459  0.773541  0.773541  1
  Si  Si7  1  0.750000  0.500000  0.500000  1
  Si  Si8  1  0.250000  0.500000  0.500000  1
  Si  Si9  1  0.523541  0.226459  0.226459  1
  Co  Co10  1  0.750000  0.000000  0.000000  1
  Co  Co11  1  0.862141  0.529810  0.745909  1
  Co  Co12  1  0.362141  0.745909  0.529810  1
  Co  Co13  1  0.637859  0.254091  0.470191  1
  Co  Co14  1  0.250000  0.000000  0.000000  1
  Co  Co15  1  0.137859  0.470191  0.254091  1
  Y  Y16  1  0.366223  0.400016  0.867538  1
  Y  Y17  1  0.633777  0.599984  0.132462  1
  Y  Y18  1  0.133777  0.132462  0.599984  1
  Y  Y19  1  0.866223  0.867538  0.400016  1
