# generated using pymatgen
data_NaAuO2
_symmetry_space_group_name_H-M   'P 1'
_cell_length_a   3.77963985
_cell_length_b   5.98051283
_cell_length_c   5.97282355
_cell_angle_alpha   90.00000000
_cell_angle_beta   108.44553878
_cell_angle_gamma   90.00000000
_symmetry_Int_Tables_number   1
_chemical_formula_structural   NaAuO2
_chemical_formula_sum   'Na2 Au2 O4'
_cell_volume   128.07460371
_cell_formula_units_Z   2
loop_
 _symmetry_equiv_pos_site_id
 _symmetry_equiv_pos_as_xyz
  1  'x, y, z'
loop_
 _atom_site_type_symbol
 _atom_site_label
 _atom_site_symmetry_multiplicity
 _atom_site_fract_x
 _atom_site_fract_y
 _atom_site_fract_z
 _atom_site_occupancy
  O  O0  1  0.877801  0.506743  0.755602  1
  O  O1  1  0.122199  0.493257  0.244398  1
  O  O2  1  0.877801  0.993257  0.755602  1
  O  O3  1  0.122199  0.006743  0.244398  1
  Na  Na4  1  0.287381  0.750000  0.574763  1
  Na  Na5  1  0.712619  0.250000  0.425237  1
  Au  Au6  1  0.996700  0.250000  0.993401  1
  Au  Au7  1  0.003300  0.750000  0.006599  1
