# generated using pymatgen
data_Th2Ag
_symmetry_space_group_name_H-M   'P 1'
_cell_length_a   5.83340448
_cell_length_b   6.13086503
_cell_length_c   6.13086503
_cell_angle_alpha   76.91894496
_cell_angle_beta   61.59240973
_cell_angle_gamma   61.59240972
_symmetry_Int_Tables_number   1
_chemical_formula_structural   Th2Ag
_chemical_formula_sum   'Th4 Ag2'
_cell_volume   169.63746743
_cell_formula_units_Z   2
loop_
 _symmetry_equiv_pos_site_id
 _symmetry_equiv_pos_as_xyz
  1  'x, y, z'
loop_
 _atom_site_type_symbol
 _atom_site_label
 _atom_site_symmetry_multiplicity
 _atom_site_fract_x
 _atom_site_fract_y
 _atom_site_fract_z
 _atom_site_occupancy
  Ag  Ag0  1  0.750000  0.000000  0.000000  1
  Ag  Ag1  1  0.250000  0.000000  0.000000  1
  Th  Th2  1  0.654636  0.190727  0.500000  1
  Th  Th3  1  0.845364  0.500000  0.809273  1
  Th  Th4  1  0.345364  0.809273  0.500000  1
  Th  Th5  1  0.154636  0.500000  0.190727  1
