# generated using pymatgen
data_Nb3Cl8
_symmetry_space_group_name_H-M   'P 1'
_cell_length_a   6.83140353
_cell_length_b   6.83140353
_cell_length_c   13.74889995
_cell_angle_alpha   90.00000000
_cell_angle_beta   90.00000000
_cell_angle_gamma   119.99999997
_symmetry_Int_Tables_number   1
_chemical_formula_structural   Nb3Cl8
_chemical_formula_sum   'Nb6 Cl16'
_cell_volume   555.67193529
_cell_formula_units_Z   2
loop_
 _symmetry_equiv_pos_site_id
 _symmetry_equiv_pos_as_xyz
  1  'x, y, z'
loop_
 _atom_site_type_symbol
 _atom_site_label
 _atom_site_symmetry_multiplicity
 _atom_site_fract_x
 _atom_site_fract_y
 _atom_site_fract_z
 _atom_site_occupancy
  Cl  Cl0  1  0.169652  0.339303  0.633024  1
  Cl  Cl1  1  0.660697  0.830348  0.633024  1
  Cl  Cl2  1  0.169652  0.830348  0.633024  1
  Cl  Cl3  1  0.830348  0.660697  0.366976  1
  Cl  Cl4  1  0.830348  0.169652  0.366976  1
  Cl  Cl5  1  0.339303  0.169652  0.366976  1
  Cl  Cl6  1  0.666667  0.333333  0.112807  1
  Cl  Cl7  1  0.333333  0.666667  0.887193  1
  Cl  Cl8  1  0.333333  0.666667  0.344612  1
  Cl  Cl9  1  0.666667  0.333333  0.655388  1
  Cl  Cl10  1  0.668318  0.834159  0.148138  1
  Cl  Cl11  1  0.165841  0.834159  0.148138  1
  Cl  Cl12  1  0.165841  0.331682  0.148138  1
  Cl  Cl13  1  0.834159  0.165841  0.851862  1
  Cl  Cl14  1  0.331682  0.165841  0.851862  1
  Cl  Cl15  1  0.834159  0.668318  0.851862  1
  Nb  Nb16  1  0.056812  0.528406  0.753350  1
  Nb  Nb17  1  0.471594  0.528406  0.753350  1
  Nb  Nb18  1  0.471594  0.943188  0.753350  1
  Nb  Nb19  1  0.528406  0.471594  0.246650  1
  Nb  Nb20  1  0.943188  0.471594  0.246650  1
  Nb  Nb21  1  0.528406  0.056812  0.246650  1
