# generated using pymatgen
data_Hf(Te2Cl3)2
_symmetry_space_group_name_H-M   'P 1'
_cell_length_a   7.33745638
_cell_length_b   7.28642244
_cell_length_c   7.86444265
_cell_angle_alpha   74.95416469
_cell_angle_beta   75.91788617
_cell_angle_gamma   79.68671604
_symmetry_Int_Tables_number   1
_chemical_formula_structural   Hf(Te2Cl3)2
_chemical_formula_sum   'Hf1 Te4 Cl6'
_cell_volume   390.82152347
_cell_formula_units_Z   1
loop_
 _symmetry_equiv_pos_site_id
 _symmetry_equiv_pos_as_xyz
  1  'x, y, z'
loop_
 _atom_site_type_symbol
 _atom_site_label
 _atom_site_symmetry_multiplicity
 _atom_site_fract_x
 _atom_site_fract_y
 _atom_site_fract_z
 _atom_site_occupancy
  Cl  Cl0  1  0.784602  1.001211  0.297700  1
  Cl  Cl1  1  0.215398  -0.001211  0.702300  1
  Cl  Cl2  1  0.759903  0.887556  0.900926  1
  Cl  Cl3  1  0.240097  0.112444  0.099074  1
  Cl  Cl4  1  0.875283  0.337439  0.880999  1
  Cl  Cl5  1  0.124717  0.662561  0.119001  1
  Te  Te6  1  0.500189  0.607961  0.697894  1
  Te  Te7  1  0.499811  0.392039  0.302106  1
  Te  Te8  1  0.707563  0.309805  0.562098  1
  Te  Te9  1  0.292437  0.690195  0.437902  1
  Hf  Hf10  1  0.000000  0.000000  0.000000  1
