# generated using pymatgen
data_Nd2CuO4
_symmetry_space_group_name_H-M   'P 1'
_cell_length_a   3.76173986
_cell_length_b   3.76174032
_cell_length_c   7.01447654
_cell_angle_alpha   105.55368945
_cell_angle_beta   105.55368796
_cell_angle_gamma   90.00000781
_symmetry_Int_Tables_number   1
_chemical_formula_structural   Nd2CuO4
_chemical_formula_sum   'Nd2 Cu1 O4'
_cell_volume   91.84607250
_cell_formula_units_Z   1
loop_
 _symmetry_equiv_pos_site_id
 _symmetry_equiv_pos_as_xyz
  1  'x, y, z'
loop_
 _atom_site_type_symbol
 _atom_site_label
 _atom_site_symmetry_multiplicity
 _atom_site_fract_x
 _atom_site_fract_y
 _atom_site_fract_z
 _atom_site_occupancy
  Nd  Nd0  1  0.637858  0.637858  0.275717  1
  Nd  Nd1  1  0.362142  0.362142  0.724283  1
  Cu  Cu2  1  0.000000  0.000000  0.000000  1
  O  O3  1  0.815233  0.815233  0.630464  1
  O  O4  1  0.184767  0.184767  0.369536  1
  O  O5  1  0.500000  0.000000  0.000000  1
  O  O6  1  0.000000  0.500000  0.000000  1
