# generated using pymatgen
data_FeSn2
_symmetry_space_group_name_H-M   'P 1'
_cell_length_a   5.33896301
_cell_length_b   5.35291759
_cell_length_c   5.35291759
_cell_angle_alpha   75.59950578
_cell_angle_beta   60.08619858
_cell_angle_gamma   60.08619863
_symmetry_Int_Tables_number   1
_chemical_formula_structural   FeSn2
_chemical_formula_sum   'Fe2 Sn4'
_cell_volume   114.93503490
_cell_formula_units_Z   2
loop_
 _symmetry_equiv_pos_site_id
 _symmetry_equiv_pos_as_xyz
  1  'x, y, z'
loop_
 _atom_site_type_symbol
 _atom_site_label
 _atom_site_symmetry_multiplicity
 _atom_site_fract_x
 _atom_site_fract_y
 _atom_site_fract_z
 _atom_site_occupancy
  Fe  Fe0  1  0.750000  0.000000  0.000000  1
  Fe  Fe1  1  0.250000  0.000000  0.000000  1
  Sn  Sn2  1  0.661949  0.176102  0.500000  1
  Sn  Sn3  1  0.838051  0.500000  0.823898  1
  Sn  Sn4  1  0.338051  0.823898  0.500000  1
  Sn  Sn5  1  0.161949  0.500000  0.176102  1
