# generated using pymatgen
data_NaAlH4
_symmetry_space_group_name_H-M   'P 1'
_cell_length_a   6.59238539
_cell_length_b   6.59238539
_cell_length_c   6.59238539
_cell_angle_alpha   135.49953315
_cell_angle_beta   135.49953315
_cell_angle_gamma   64.75502113
_symmetry_Int_Tables_number   1
_chemical_formula_structural   NaAlH4
_chemical_formula_sum   'Na2 Al2 H8'
_cell_volume   138.76771722
_cell_formula_units_Z   2
loop_
 _symmetry_equiv_pos_site_id
 _symmetry_equiv_pos_as_xyz
  1  'x, y, z'
loop_
 _atom_site_type_symbol
 _atom_site_label
 _atom_site_symmetry_multiplicity
 _atom_site_fract_x
 _atom_site_fract_y
 _atom_site_fract_z
 _atom_site_occupancy
  Na  Na0  1  0.250000  0.750000  0.500000  1
  Na  Na1  1  0.500000  0.500000  0.000000  1
  Al  Al2  1  0.750000  0.250000  0.500000  1
  Al  Al3  1  0.000000  0.000000  0.000000  1
  H  H4  1  0.216135  0.319982  0.374885  1
  H  H5  1  0.945098  0.841250  0.625115  1
  H  H6  1  0.804902  0.408750  0.874885  1
  H  H7  1  0.533865  0.930018  0.125115  1
  H  H8  1  0.680018  0.054902  0.896152  1
  H  H9  1  0.158750  0.783865  0.103848  1
  H  H10  1  0.591250  0.466135  0.396152  1
  H  H11  1  0.069982  0.195098  0.603848  1
