# generated using pymatgen
data_RbMnBr3
_symmetry_space_group_name_H-M   'P 1'
_cell_length_a   7.65679045
_cell_length_b   7.65679086
_cell_length_c   6.53342491
_cell_angle_alpha   90.00000000
_cell_angle_beta   90.00000000
_cell_angle_gamma   119.99999828
_symmetry_Int_Tables_number   1
_chemical_formula_structural   RbMnBr3
_chemical_formula_sum   'Rb2 Mn2 Br6'
_cell_volume   331.71498393
_cell_formula_units_Z   2
loop_
 _symmetry_equiv_pos_site_id
 _symmetry_equiv_pos_as_xyz
  1  'x, y, z'
loop_
 _atom_site_type_symbol
 _atom_site_label
 _atom_site_symmetry_multiplicity
 _atom_site_fract_x
 _atom_site_fract_y
 _atom_site_fract_z
 _atom_site_occupancy
  Rb  Rb0  1  0.333333  0.666667  0.750000  1
  Rb  Rb1  1  0.666667  0.333333  0.250000  1
  Mn  Mn2  1  0.000000  0.000000  0.000000  1
  Mn  Mn3  1  0.000000  0.000000  0.500000  1
  Br  Br4  1  0.161852  0.323705  0.250000  1
  Br  Br5  1  0.838148  0.161852  0.750000  1
  Br  Br6  1  0.323705  0.161852  0.750000  1
  Br  Br7  1  0.676295  0.838148  0.250000  1
  Br  Br8  1  0.161852  0.838148  0.250000  1
  Br  Br9  1  0.838148  0.676295  0.750000  1
