# generated using pymatgen
data_PrClO
_symmetry_space_group_name_H-M   'P 1'
_cell_length_a   4.09719370
_cell_length_b   4.09719370
_cell_length_c   6.91317481
_cell_angle_alpha   90.00000000
_cell_angle_beta   90.00000000
_cell_angle_gamma   90.00000000
_symmetry_Int_Tables_number   1
_chemical_formula_structural   PrClO
_chemical_formula_sum   'Pr2 Cl2 O2'
_cell_volume   116.05143937
_cell_formula_units_Z   2
loop_
 _symmetry_equiv_pos_site_id
 _symmetry_equiv_pos_as_xyz
  1  'x, y, z'
loop_
 _atom_site_type_symbol
 _atom_site_label
 _atom_site_symmetry_multiplicity
 _atom_site_fract_x
 _atom_site_fract_y
 _atom_site_fract_z
 _atom_site_occupancy
  Pr  Pr0  1  0.750000  0.750000  0.174000  1
  Pr  Pr1  1  0.250000  0.250000  0.826000  1
  O  O2  1  0.250000  0.750000  0.000000  1
  O  O3  1  0.750000  0.250000  0.000000  1
  Cl  Cl4  1  0.750000  0.750000  0.627448  1
  Cl  Cl5  1  0.250000  0.250000  0.372552  1
