# generated using pymatgen
data_BiF3
_symmetry_space_group_name_H-M   'P 1'
_cell_length_a   4.07645821
_cell_length_b   4.07645822
_cell_length_c   4.07645822
_cell_angle_alpha   59.99999999
_cell_angle_beta   59.99999996
_cell_angle_gamma   60.00000006
_symmetry_Int_Tables_number   1
_chemical_formula_structural   BiF3
_chemical_formula_sum   'Bi1 F3'
_cell_volume   47.89983178
_cell_formula_units_Z   1
loop_
 _symmetry_equiv_pos_site_id
 _symmetry_equiv_pos_as_xyz
  1  'x, y, z'
loop_
 _atom_site_type_symbol
 _atom_site_label
 _atom_site_symmetry_multiplicity
 _atom_site_fract_x
 _atom_site_fract_y
 _atom_site_fract_z
 _atom_site_occupancy
  F  F0  1  0.750000  0.750000  0.750000  1
  F  F1  1  0.500000  0.500000  0.500000  1
  F  F2  1  0.250000  0.250000  0.250000  1
  Bi  Bi3  1  0.000000  0.000000  0.000000  1
