# generated using pymatgen
data_Rb2CdCl4
_symmetry_space_group_name_H-M   'P 1'
_cell_length_a   5.30307621
_cell_length_b   5.30307650
_cell_length_c   9.00626906
_cell_angle_alpha   107.12217955
_cell_angle_beta   107.12218051
_cell_angle_gamma   89.99999995
_symmetry_Int_Tables_number   1
_chemical_formula_structural   Rb2CdCl4
_chemical_formula_sum   'Rb2 Cd1 Cl4'
_cell_volume   230.28213008
_cell_formula_units_Z   1
loop_
 _symmetry_equiv_pos_site_id
 _symmetry_equiv_pos_as_xyz
  1  'x, y, z'
loop_
 _atom_site_type_symbol
 _atom_site_label
 _atom_site_symmetry_multiplicity
 _atom_site_fract_x
 _atom_site_fract_y
 _atom_site_fract_z
 _atom_site_occupancy
  Rb  Rb0  1  0.359308  0.359308  0.718617  1
  Rb  Rb1  1  0.640692  0.640692  0.281383  1
  Cd  Cd2  1  0.000000  0.000000  0.000000  1
  Cl  Cl3  1  0.500000  0.000000  0.000000  1
  Cl  Cl4  1  0.000000  0.500000  0.000000  1
  Cl  Cl5  1  0.159446  0.159446  0.318892  1
  Cl  Cl6  1  0.840554  0.840554  0.681108  1
