# generated using pymatgen
data_PuBr3
_symmetry_space_group_name_H-M   'P 1'
_cell_length_a   4.04470733
_cell_length_b   7.56926767
_cell_length_c   9.19537074
_cell_angle_alpha   90.00000000
_cell_angle_beta   90.00000000
_cell_angle_gamma   105.49650335
_symmetry_Int_Tables_number   1
_chemical_formula_structural   PuBr3
_chemical_formula_sum   'Pu2 Br6'
_cell_volume   271.28643287
_cell_formula_units_Z   2
loop_
 _symmetry_equiv_pos_site_id
 _symmetry_equiv_pos_as_xyz
  1  'x, y, z'
loop_
 _atom_site_type_symbol
 _atom_site_label
 _atom_site_symmetry_multiplicity
 _atom_site_fract_x
 _atom_site_fract_y
 _atom_site_fract_z
 _atom_site_occupancy
  Br  Br0  1  0.341455  0.682909  0.431324  1
  Br  Br1  1  0.658545  0.317091  0.568676  1
  Br  Br2  1  0.901558  0.803115  0.750000  1
  Br  Br3  1  0.098442  0.196885  0.250000  1
  Br  Br4  1  0.341455  0.682909  0.068676  1
  Br  Br5  1  0.658545  0.317091  0.931324  1
  Pu  Pu6  1  0.738750  0.477500  0.250000  1
  Pu  Pu7  1  0.261250  0.522500  0.750000  1
