# generated using pymatgen
data_PbBr2
_symmetry_space_group_name_H-M   'P 1'
_cell_length_a   4.78609321
_cell_length_b   8.23966944
_cell_length_c   9.87155657
_cell_angle_alpha   90.00000000
_cell_angle_beta   90.00000000
_cell_angle_gamma   90.00000000
_symmetry_Int_Tables_number   1
_chemical_formula_structural   PbBr2
_chemical_formula_sum   'Pb4 Br8'
_cell_volume   389.29298684
_cell_formula_units_Z   4
loop_
 _symmetry_equiv_pos_site_id
 _symmetry_equiv_pos_as_xyz
  1  'x, y, z'
loop_
 _atom_site_type_symbol
 _atom_site_label
 _atom_site_symmetry_multiplicity
 _atom_site_fract_x
 _atom_site_fract_y
 _atom_site_fract_z
 _atom_site_occupancy
  Pb  Pb0  1  0.750000  0.270342  0.917368  1
  Pb  Pb1  1  0.250000  0.729658  0.082632  1
  Pb  Pb2  1  0.750000  0.770342  0.582632  1
  Pb  Pb3  1  0.250000  0.229658  0.417368  1
  Br  Br4  1  0.750000  0.858003  0.920707  1
  Br  Br5  1  0.250000  0.141997  0.079293  1
  Br  Br6  1  0.750000  0.358003  0.579293  1
  Br  Br7  1  0.250000  0.641997  0.420707  1
  Br  Br8  1  0.750000  0.485994  0.157522  1
  Br  Br9  1  0.250000  0.514006  0.842478  1
  Br  Br10  1  0.750000  0.985994  0.342478  1
  Br  Br11  1  0.250000  0.014006  0.657522  1
