# generated using pymatgen
data_Tb2Al3Si2
_symmetry_space_group_name_H-M   'P 1'
_cell_length_a   4.06155113
_cell_length_b   5.49886487
_cell_length_c   6.63986327
_cell_angle_alpha   100.31560429
_cell_angle_beta   90.00000000
_cell_angle_gamma   111.67295487
_symmetry_Int_Tables_number   1
_chemical_formula_structural   Tb2Al3Si2
_chemical_formula_sum   'Tb2 Al3 Si2'
_cell_volume   135.22814295
_cell_formula_units_Z   1
loop_
 _symmetry_equiv_pos_site_id
 _symmetry_equiv_pos_as_xyz
  1  'x, y, z'
loop_
 _atom_site_type_symbol
 _atom_site_label
 _atom_site_symmetry_multiplicity
 _atom_site_fract_x
 _atom_site_fract_y
 _atom_site_fract_z
 _atom_site_occupancy
  Al  Al0  1  0.694297  0.388593  0.866365  1
  Al  Al1  1  0.000000  0.000000  0.000000  1
  Al  Al2  1  0.305703  0.611407  0.133635  1
  Si  Si3  1  0.907287  0.814575  0.359640  1
  Si  Si4  1  0.092713  0.185425  0.640360  1
  Tb  Tb5  1  0.380392  0.760784  0.677930  1
  Tb  Tb6  1  0.619608  0.239216  0.322070  1
