# generated using pymatgen
data_SrUO4
_symmetry_space_group_name_H-M   'P 1'
_cell_length_a   6.64072855
_cell_length_b   6.64072827
_cell_length_c   6.64072852
_cell_angle_alpha   34.59832877
_cell_angle_beta   34.59833205
_cell_angle_gamma   34.59833275
_symmetry_Int_Tables_number   1
_chemical_formula_structural   SrUO4
_chemical_formula_sum   'Sr1 U1 O4'
_cell_volume   84.24906767
_cell_formula_units_Z   1
loop_
 _symmetry_equiv_pos_site_id
 _symmetry_equiv_pos_as_xyz
  1  'x, y, z'
loop_
 _atom_site_type_symbol
 _atom_site_label
 _atom_site_symmetry_multiplicity
 _atom_site_fract_x
 _atom_site_fract_y
 _atom_site_fract_z
 _atom_site_occupancy
  O  O0  1  0.358701  0.358701  0.358701  1
  O  O1  1  0.106279  0.106279  0.106279  1
  O  O2  1  0.641299  0.641299  0.641299  1
  O  O3  1  0.893721  0.893721  0.893721  1
  U  U4  1  0.000000  0.000000  0.000000  1
  Sr  Sr5  1  0.500000  0.500000  0.500000  1
