# generated using pymatgen
data_W(ClO)2
_symmetry_space_group_name_H-M   'P 1'
_cell_length_a   3.87330505
_cell_length_b   8.31579354
_cell_length_c   7.72245949
_cell_angle_alpha   90.00000000
_cell_angle_beta   90.00000000
_cell_angle_gamma   90.00000000
_symmetry_Int_Tables_number   1
_chemical_formula_structural   W(ClO)2
_chemical_formula_sum   'W2 Cl4 O4'
_cell_volume   248.73737068
_cell_formula_units_Z   2
loop_
 _symmetry_equiv_pos_site_id
 _symmetry_equiv_pos_as_xyz
  1  'x, y, z'
loop_
 _atom_site_type_symbol
 _atom_site_label
 _atom_site_symmetry_multiplicity
 _atom_site_fract_x
 _atom_site_fract_y
 _atom_site_fract_z
 _atom_site_occupancy
  O  O0  1  0.495592  0.000000  0.466671  1
  O  O1  1  0.504409  0.000000  0.966671  1
  O  O2  1  0.998195  0.000000  0.716521  1
  O  O3  1  0.001805  0.000000  0.216521  1
  Cl  Cl4  1  0.009801  0.720845  0.459029  1
  Cl  Cl5  1  0.009801  0.279156  0.459029  1
  Cl  Cl6  1  0.990200  0.720845  0.959030  1
  Cl  Cl7  1  0.990200  0.279156  0.959030  1
  W  W8  1  0.971282  0.000000  0.476749  1
  W  W9  1  0.028719  0.000000  0.976749  1
