# generated using pymatgen
data_Si(CN2)2
_symmetry_space_group_name_H-M   'P 1'
_cell_length_a   6.68437788
_cell_length_b   6.68437788
_cell_length_c   6.68437788
_cell_angle_alpha   90.00000000
_cell_angle_beta   90.00000000
_cell_angle_gamma   90.00000000
_symmetry_Int_Tables_number   1
_chemical_formula_structural   Si(CN2)2
_chemical_formula_sum   'Si2 C4 N8'
_cell_volume   298.66407070
_cell_formula_units_Z   2
loop_
 _symmetry_equiv_pos_site_id
 _symmetry_equiv_pos_as_xyz
  1  'x, y, z'
loop_
 _atom_site_type_symbol
 _atom_site_label
 _atom_site_symmetry_multiplicity
 _atom_site_fract_x
 _atom_site_fract_y
 _atom_site_fract_z
 _atom_site_occupancy
  C  C0  1  0.000000  0.500000  0.500000  1
  C  C1  1  0.500000  0.500000  0.000000  1
  C  C2  1  0.000000  0.000000  0.000000  1
  C  C3  1  0.500000  0.000000  0.500000  1
  N  N4  1  0.395541  0.104459  0.395541  1
  N  N5  1  0.895541  0.895541  0.895541  1
  N  N6  1  0.104459  0.104459  0.104459  1
  N  N7  1  0.604459  0.895541  0.604459  1
  N  N8  1  0.604459  0.604459  0.895541  1
  N  N9  1  0.895541  0.604459  0.604459  1
  N  N10  1  0.395541  0.395541  0.104459  1
  N  N11  1  0.104459  0.395541  0.395541  1
  Si  Si12  1  0.750000  0.750000  0.750000  1
  Si  Si13  1  0.250000  0.250000  0.250000  1
