# generated using pymatgen
data_BH6N
_symmetry_space_group_name_H-M   'P 1'
_cell_length_a   5.23900358
_cell_length_b   5.14711932
_cell_length_c   5.14291078
_cell_angle_alpha   90.00000000
_cell_angle_beta   90.00000000
_cell_angle_gamma   90.00000000
_symmetry_Int_Tables_number   1
_chemical_formula_structural   BH6N
_chemical_formula_sum   'B2 H12 N2'
_cell_volume   138.68258288
_cell_formula_units_Z   2
loop_
 _symmetry_equiv_pos_site_id
 _symmetry_equiv_pos_as_xyz
  1  'x, y, z'
loop_
 _atom_site_type_symbol
 _atom_site_label
 _atom_site_symmetry_multiplicity
 _atom_site_fract_x
 _atom_site_fract_y
 _atom_site_fract_z
 _atom_site_occupancy
  B  B0  1  0.718391  0.809132  0.500000  1
  B  B1  1  0.281609  0.309132  0.000000  1
  H  H2  1  0.491661  0.869570  0.500000  1
  H  H3  1  0.917963  0.433066  0.500000  1
  H  H4  1  0.082037  0.933066  0.000000  1
  H  H5  1  0.176108  0.390474  0.195335  1
  H  H6  1  0.176108  0.390474  0.804665  1
  H  H7  1  0.354977  0.921359  0.161281  1
  H  H8  1  0.354977  0.921359  0.838719  1
  H  H9  1  0.508339  0.369570  0.000000  1
  H  H10  1  0.645023  0.421359  0.338719  1
  H  H11  1  0.645023  0.421359  0.661281  1
  H  H12  1  0.823892  0.890474  0.304665  1
  H  H13  1  0.823892  0.890474  0.695335  1
  N  N14  1  0.733030  0.499366  0.500000  1
  N  N15  1  0.266970  -0.000634  0.000000  1
