# generated using pymatgen
data_Ni3S2
_symmetry_space_group_name_H-M   'P 1'
_cell_length_a   4.04589607
_cell_length_b   8.08952882
_cell_length_c   4.04662018
_cell_angle_alpha   89.32915576
_cell_angle_beta   89.35177336
_cell_angle_gamma   89.32490090
_symmetry_Int_Tables_number   1
_chemical_formula_structural   Ni3S2
_chemical_formula_sum   'Ni6 S4'
_cell_volume   132.41687858
_cell_formula_units_Z   2
loop_
 _symmetry_equiv_pos_site_id
 _symmetry_equiv_pos_as_xyz
  1  'x, y, z'
loop_
 _atom_site_type_symbol
 _atom_site_label
 _atom_site_symmetry_multiplicity
 _atom_site_fract_x
 _atom_site_fract_y
 _atom_site_fract_z
 _atom_site_occupancy
  Ni  Ni0  1  0.499864  0.121955  0.756044  1
  Ni  Ni1  1  0.499810  0.621982  0.755940  1
  Ni  Ni2  1  0.243971  0.378078  0.500198  1
  Ni  Ni3  1  0.243993  0.878090  0.500204  1
  Ni  Ni4  1  0.755974  0.249986  0.243928  1
  Ni  Ni5  1  0.755998  0.750003  0.243926  1
  S  S6  1  0.254616  0.127335  0.254381  1
  S  S7  1  0.254667  0.627351  0.254388  1
  S  S8  1  0.745565  0.372611  0.745504  1
  S  S9  1  0.745542  0.872608  0.745487  1
