# generated using pymatgen
data_La(FeSb3)4
_symmetry_space_group_name_H-M   'P 1'
_cell_length_a   7.94906799
_cell_length_b   7.94906703
_cell_length_c   7.94906746
_cell_angle_alpha   109.47121918
_cell_angle_beta   109.47121674
_cell_angle_gamma   109.47122332
_symmetry_Int_Tables_number   1
_chemical_formula_structural   La(FeSb3)4
_chemical_formula_sum   'La1 Fe4 Sb12'
_cell_volume   386.65771209
_cell_formula_units_Z   1
loop_
 _symmetry_equiv_pos_site_id
 _symmetry_equiv_pos_as_xyz
  1  'x, y, z'
loop_
 _atom_site_type_symbol
 _atom_site_label
 _atom_site_symmetry_multiplicity
 _atom_site_fract_x
 _atom_site_fract_y
 _atom_site_fract_z
 _atom_site_occupancy
  Fe  Fe0  1  0.500000  0.500000  0.500000  1
  Fe  Fe1  1  0.000000  0.500000  0.000000  1
  Fe  Fe2  1  0.000000  0.000000  0.500000  1
  Fe  Fe3  1  0.500000  0.000000  0.000000  1
  La  La4  1  0.000000  0.000000  0.000000  1
  Sb  Sb5  1  0.498455  0.163223  0.335232  1
  Sb  Sb6  1  0.163223  0.664768  0.827991  1
  Sb  Sb7  1  0.335232  0.172009  0.836777  1
  Sb  Sb8  1  0.836777  0.664768  0.501545  1
  Sb  Sb9  1  0.664768  0.827991  0.163223  1
  Sb  Sb10  1  0.836777  0.335232  0.172009  1
  Sb  Sb11  1  0.664768  0.501545  0.836777  1
  Sb  Sb12  1  0.335232  0.498455  0.163223  1
  Sb  Sb13  1  0.163223  0.335232  0.498455  1
  Sb  Sb14  1  0.827991  0.163223  0.664768  1
  Sb  Sb15  1  0.172009  0.836777  0.335232  1
  Sb  Sb16  1  0.501545  0.836777  0.664768  1
