# generated using pymatgen
data_DyCu5
_symmetry_space_group_name_H-M   'P 1'
_cell_length_a   4.96807286
_cell_length_b   4.96807256
_cell_length_c   4.96807244
_cell_angle_alpha   59.99999415
_cell_angle_beta   59.99999615
_cell_angle_gamma   59.99999932
_symmetry_Int_Tables_number   1
_chemical_formula_structural   DyCu5
_chemical_formula_sum   'Dy1 Cu5'
_cell_volume   86.70592482
_cell_formula_units_Z   1
loop_
 _symmetry_equiv_pos_site_id
 _symmetry_equiv_pos_as_xyz
  1  'x, y, z'
loop_
 _atom_site_type_symbol
 _atom_site_label
 _atom_site_symmetry_multiplicity
 _atom_site_fract_x
 _atom_site_fract_y
 _atom_site_fract_z
 _atom_site_occupancy
  Cu  Cu0  1  0.250000  0.250000  0.250000  1
  Cu  Cu1  1  0.623803  0.623803  0.623803  1
  Cu  Cu2  1  0.623803  0.623803  0.128591  1
  Cu  Cu3  1  0.128591  0.623803  0.623803  1
  Cu  Cu4  1  0.623803  0.128591  0.623803  1
  Dy  Dy5  1  0.000000  0.000000  0.000000  1
