# generated using pymatgen
data_ErCoSi2
_symmetry_space_group_name_H-M   'P 1'
_cell_length_a   3.96655168
_cell_length_b   3.98626039
_cell_length_c   8.35042172
_cell_angle_alpha   103.80901013
_cell_angle_beta   90.00000000
_cell_angle_gamma   90.00000000
_symmetry_Int_Tables_number   1
_chemical_formula_structural   ErCoSi2
_chemical_formula_sum   'Er2 Co2 Si4'
_cell_volume   128.21820561
_cell_formula_units_Z   2
loop_
 _symmetry_equiv_pos_site_id
 _symmetry_equiv_pos_as_xyz
  1  'x, y, z'
loop_
 _atom_site_type_symbol
 _atom_site_label
 _atom_site_symmetry_multiplicity
 _atom_site_fract_x
 _atom_site_fract_y
 _atom_site_fract_z
 _atom_site_occupancy
  Si  Si0  1  0.250000  0.249988  0.499976  1
  Si  Si1  1  0.750000  0.750012  0.500024  1
  Si  Si2  1  0.750000  0.457800  0.915599  1
  Si  Si3  1  0.250000  0.542200  0.084401  1
  Co  Co4  1  0.750000  0.321483  0.642966  1
  Co  Co5  1  0.250000  0.678517  0.357034  1
  Er  Er6  1  0.250000  0.892614  0.785229  1
  Er  Er7  1  0.750000  0.107386  0.214771  1
