# generated using pymatgen
data_NdGaO3
_symmetry_space_group_name_H-M   'P 1'
_cell_length_a   5.47164972
_cell_length_b   5.61387691
_cell_length_c   7.80258706
_cell_angle_alpha   90.00000000
_cell_angle_beta   90.00000000
_cell_angle_gamma   90.00000000
_symmetry_Int_Tables_number   1
_chemical_formula_structural   NdGaO3
_chemical_formula_sum   'Nd4 Ga4 O12'
_cell_volume   239.67337773
_cell_formula_units_Z   4
loop_
 _symmetry_equiv_pos_site_id
 _symmetry_equiv_pos_as_xyz
  1  'x, y, z'
loop_
 _atom_site_type_symbol
 _atom_site_label
 _atom_site_symmetry_multiplicity
 _atom_site_fract_x
 _atom_site_fract_y
 _atom_site_fract_z
 _atom_site_occupancy
  O  O0  1  0.708234  0.292960  0.453368  1
  O  O1  1  0.208234  0.207040  0.546632  1
  O  O2  1  0.791766  0.792960  0.046632  1
  O  O3  1  0.291766  0.707040  0.953368  1
  O  O4  1  0.291766  0.707040  0.546632  1
  O  O5  1  0.791766  0.792960  0.453368  1
  O  O6  1  0.208234  0.207040  0.953368  1
  O  O7  1  0.708234  0.292960  0.046632  1
  O  O8  1  0.087301  0.477408  0.250000  1
  O  O9  1  0.587301  0.022592  0.750000  1
  O  O10  1  0.412699  0.977408  0.250000  1
  O  O11  1  0.912699  0.522592  0.750000  1
  Ga  Ga12  1  0.500000  0.000000  0.500000  1
  Ga  Ga13  1  0.000000  0.500000  0.500000  1
  Ga  Ga14  1  0.000000  0.500000  0.000000  1
  Ga  Ga15  1  0.500000  0.000000  0.000000  1
  Nd  Nd16  1  0.013134  0.948362  0.750000  1
  Nd  Nd17  1  0.513134  0.551638  0.250000  1
  Nd  Nd18  1  0.486866  0.448362  0.750000  1
  Nd  Nd19  1  0.986866  0.051638  0.250000  1
