# generated using pymatgen
data_TbScO3
_symmetry_space_group_name_H-M   'P 1'
_cell_length_a   5.48365632
_cell_length_b   5.77645673
_cell_length_c   7.94438871
_cell_angle_alpha   90.00000000
_cell_angle_beta   90.00000000
_cell_angle_gamma   90.00000000
_symmetry_Int_Tables_number   1
_chemical_formula_structural   TbScO3
_chemical_formula_sum   'Tb4 Sc4 O12'
_cell_volume   251.64727866
_cell_formula_units_Z   4
loop_
 _symmetry_equiv_pos_site_id
 _symmetry_equiv_pos_as_xyz
  1  'x, y, z'
loop_
 _atom_site_type_symbol
 _atom_site_label
 _atom_site_symmetry_multiplicity
 _atom_site_fract_x
 _atom_site_fract_y
 _atom_site_fract_z
 _atom_site_occupancy
  O  O0  1  0.127109  0.555668  0.750000  1
  O  O1  1  0.627109  0.944332  0.250000  1
  O  O2  1  0.189315  0.808155  0.065431  1
  O  O3  1  0.189315  0.808155  0.434569  1
  O  O4  1  0.310685  0.308155  0.065431  1
  O  O5  1  0.310685  0.308155  0.434569  1
  O  O6  1  0.689315  0.691845  0.934569  1
  O  O7  1  0.689315  0.691845  0.565431  1
  O  O8  1  0.810685  0.191845  0.934569  1
  O  O9  1  0.810685  0.191845  0.565431  1
  O  O10  1  0.872891  0.444332  0.250000  1
  O  O11  1  0.372891  0.055668  0.750000  1
  Sc  Sc12  1  0.500000  0.000000  0.500000  1
  Sc  Sc13  1  0.000000  0.500000  0.500000  1
  Sc  Sc14  1  0.500000  0.000000  0.000000  1
  Sc  Sc15  1  0.000000  0.500000  0.000000  1
  Tb  Tb16  1  0.017039  0.062208  0.250000  1
  Tb  Tb17  1  0.482961  0.562208  0.250000  1
  Tb  Tb18  1  0.517039  0.437792  0.750000  1
  Tb  Tb19  1  0.982961  0.937792  0.750000  1
