# generated using pymatgen
data_BaCu3O4
_symmetry_space_group_name_H-M   'P 1'
_cell_length_a   4.09312537
_cell_length_b   5.55356310
_cell_length_c   6.20379037
_cell_angle_alpha   116.42265265
_cell_angle_beta   89.78246559
_cell_angle_gamma   90.01978663
_symmetry_Int_Tables_number   1
_chemical_formula_structural   BaCu3O4
_chemical_formula_sum   'Ba1 Cu3 O4'
_cell_volume   126.28833921
_cell_formula_units_Z   1
loop_
 _symmetry_equiv_pos_site_id
 _symmetry_equiv_pos_as_xyz
  1  'x, y, z'
loop_
 _atom_site_type_symbol
 _atom_site_label
 _atom_site_symmetry_multiplicity
 _atom_site_fract_x
 _atom_site_fract_y
 _atom_site_fract_z
 _atom_site_occupancy
  Ba  Ba0  1  0.441208  0.497926  0.997192  1
  Cu  Cu1  1  0.934320  0.744700  0.492995  1
  Cu  Cu2  1  0.938081  0.251623  0.503969  1
  Cu  Cu3  1  0.933764  0.998503  0.998859  1
  O  O4  1  0.930991  0.624101  0.740494  1
  O  O5  1  0.935625  0.112836  0.738390  1
  O  O6  1  0.941767  0.884067  0.257622  1
  O  O7  1  0.936569  0.373003  0.255511  1
