# generated using pymatgen
data_TbAlPd
_symmetry_space_group_name_H-M   'P 1'
_cell_length_a   7.14976471
_cell_length_b   7.14976471
_cell_length_c   4.11067117
_cell_angle_alpha   90.00000000
_cell_angle_beta   90.00000000
_cell_angle_gamma   120.00000003
_symmetry_Int_Tables_number   1
_chemical_formula_structural   TbAlPd
_chemical_formula_sum   'Tb3 Al3 Pd3'
_cell_volume   181.98134423
_cell_formula_units_Z   3
loop_
 _symmetry_equiv_pos_site_id
 _symmetry_equiv_pos_as_xyz
  1  'x, y, z'
loop_
 _atom_site_type_symbol
 _atom_site_label
 _atom_site_symmetry_multiplicity
 _atom_site_fract_x
 _atom_site_fract_y
 _atom_site_fract_z
 _atom_site_occupancy
  Al  Al0  1  0.764251  0.764251  0.000000  1
  Al  Al1  1  0.235749  0.000000  0.000000  1
  Al  Al2  1  0.000000  0.235749  0.000000  1
  Pd  Pd3  1  0.333333  0.666667  0.000000  1
  Pd  Pd4  1  0.666667  0.333333  0.000000  1
  Pd  Pd5  1  0.000000  0.000000  0.500000  1
  Tb  Tb6  1  0.000000  0.582813  0.500000  1
  Tb  Tb7  1  0.417187  0.417187  0.500000  1
  Tb  Tb8  1  0.582813  0.000000  0.500000  1
