# generated using pymatgen
data_U
_symmetry_space_group_name_H-M   'P 1'
_cell_length_a   2.79203468
_cell_length_b   3.23897126
_cell_length_c   4.89792587
_cell_angle_alpha   90.00000000
_cell_angle_beta   90.00000000
_cell_angle_gamma   115.53144571
_symmetry_Int_Tables_number   1
_chemical_formula_structural   U
_chemical_formula_sum   U2
_cell_volume   39.96820001
_cell_formula_units_Z   2
loop_
 _symmetry_equiv_pos_site_id
 _symmetry_equiv_pos_as_xyz
  1  'x, y, z'
loop_
 _atom_site_type_symbol
 _atom_site_label
 _atom_site_symmetry_multiplicity
 _atom_site_fract_x
 _atom_site_fract_y
 _atom_site_fract_z
 _atom_site_occupancy
  U  U0  1  0.097725  0.195451  0.750000  1
  U  U1  1  0.902275  0.804549  0.250000  1
