# generated using pymatgen
data_Ca(NiP)2
_symmetry_space_group_name_H-M   'P 1'
_cell_length_a   3.91195352
_cell_length_b   3.91195352
_cell_length_c   5.43691068
_cell_angle_alpha   111.08538724
_cell_angle_beta   111.08538719
_cell_angle_gamma   90.00000003
_symmetry_Int_Tables_number   1
_chemical_formula_structural   Ca(NiP)2
_chemical_formula_sum   'Ca1 Ni2 P2'
_cell_volume   71.62947790
_cell_formula_units_Z   1
loop_
 _symmetry_equiv_pos_site_id
 _symmetry_equiv_pos_as_xyz
  1  'x, y, z'
loop_
 _atom_site_type_symbol
 _atom_site_label
 _atom_site_symmetry_multiplicity
 _atom_site_fract_x
 _atom_site_fract_y
 _atom_site_fract_z
 _atom_site_occupancy
  P  P0  1  0.623800  0.623800  0.247600  1
  P  P1  1  0.376200  0.376200  0.752400  1
  Ca  Ca2  1  0.000000  0.000000  0.000000  1
  Ni  Ni3  1  0.250000  0.750000  0.500000  1
  Ni  Ni4  1  0.750000  0.250000  0.500000  1
