# generated using pymatgen
data_Fe5Si3
_symmetry_space_group_name_H-M   'P 1'
_cell_length_a   6.69417646
_cell_length_b   6.69417646
_cell_length_c   4.68372455
_cell_angle_alpha   90.00000000
_cell_angle_beta   90.00000000
_cell_angle_gamma   120.00000001
_symmetry_Int_Tables_number   1
_chemical_formula_structural   Fe5Si3
_chemical_formula_sum   'Fe10 Si6'
_cell_volume   181.76752358
_cell_formula_units_Z   2
loop_
 _symmetry_equiv_pos_site_id
 _symmetry_equiv_pos_as_xyz
  1  'x, y, z'
loop_
 _atom_site_type_symbol
 _atom_site_label
 _atom_site_symmetry_multiplicity
 _atom_site_fract_x
 _atom_site_fract_y
 _atom_site_fract_z
 _atom_site_occupancy
  Si  Si0  1  0.395437  0.000000  0.750000  1
  Si  Si1  1  0.395437  0.395437  0.250000  1
  Si  Si2  1  0.000000  0.604563  0.250000  1
  Si  Si3  1  0.000000  0.395437  0.750000  1
  Si  Si4  1  0.604563  0.604563  0.750000  1
  Si  Si5  1  0.604563  0.000000  0.250000  1
  Fe  Fe6  1  0.000000  0.761425  0.750000  1
  Fe  Fe7  1  0.000000  0.238575  0.250000  1
  Fe  Fe8  1  0.761425  0.761425  0.250000  1
  Fe  Fe9  1  0.761425  0.000000  0.750000  1
  Fe  Fe10  1  0.238575  0.238575  0.750000  1
  Fe  Fe11  1  0.238575  0.000000  0.250000  1
  Fe  Fe12  1  0.333333  0.666667  0.500000  1
  Fe  Fe13  1  0.666667  0.333333  0.000000  1
  Fe  Fe14  1  0.666667  0.333333  0.500000  1
  Fe  Fe15  1  0.333333  0.666667  0.000000  1
