# generated using pymatgen
data_BaTaS3
_symmetry_space_group_name_H-M   'P 1'
_cell_length_a   6.95081086
_cell_length_b   6.95081086
_cell_length_c   5.73842678
_cell_angle_alpha   90.00000000
_cell_angle_beta   90.00000000
_cell_angle_gamma   120.00000001
_symmetry_Int_Tables_number   1
_chemical_formula_structural   BaTaS3
_chemical_formula_sum   'Ba2 Ta2 S6'
_cell_volume   240.10124839
_cell_formula_units_Z   2
loop_
 _symmetry_equiv_pos_site_id
 _symmetry_equiv_pos_as_xyz
  1  'x, y, z'
loop_
 _atom_site_type_symbol
 _atom_site_label
 _atom_site_symmetry_multiplicity
 _atom_site_fract_x
 _atom_site_fract_y
 _atom_site_fract_z
 _atom_site_occupancy
  S  S0  1  0.660832  0.830416  0.250000  1
  S  S1  1  0.830416  0.660832  0.750000  1
  S  S2  1  0.169584  0.339168  0.250000  1
  S  S3  1  0.830416  0.169584  0.750000  1
  S  S4  1  0.339168  0.169584  0.750000  1
  S  S5  1  0.169584  0.830416  0.250000  1
  Ba  Ba6  1  0.333333  0.666667  0.750000  1
  Ba  Ba7  1  0.666667  0.333333  0.250000  1
  Ta  Ta8  1  0.000000  0.000000  0.000000  1
  Ta  Ta9  1  0.000000  0.000000  0.500000  1
