# generated using pymatgen
data_Ho(CuSi)2
_symmetry_space_group_name_H-M   'P 1'
_cell_length_a   3.95361491
_cell_length_b   3.95361490
_cell_length_c   5.72833457
_cell_angle_alpha   110.18746535
_cell_angle_beta   110.18746532
_cell_angle_gamma   89.99999994
_symmetry_Int_Tables_number   1
_chemical_formula_structural   Ho(CuSi)2
_chemical_formula_sum   'Ho1 Si2 Cu2'
_cell_volume   78.15266791
_cell_formula_units_Z   1
loop_
 _symmetry_equiv_pos_site_id
 _symmetry_equiv_pos_as_xyz
  1  'x, y, z'
loop_
 _atom_site_type_symbol
 _atom_site_label
 _atom_site_symmetry_multiplicity
 _atom_site_fract_x
 _atom_site_fract_y
 _atom_site_fract_z
 _atom_site_occupancy
  Si  Si0  1  0.616991  0.616991  0.233982  1
  Si  Si1  1  0.383009  0.383009  0.766018  1
  Cu  Cu2  1  0.250000  0.750000  0.500000  1
  Cu  Cu3  1  0.750000  0.250000  0.500000  1
  Ho  Ho4  1  0.000000  0.000000  0.000000  1
