# generated using pymatgen
data_Cs2SiF6
_symmetry_space_group_name_H-M   'P 1'
_cell_length_a   6.40840392
_cell_length_b   6.40840392
_cell_length_c   6.40840392
_cell_angle_alpha   59.99999999
_cell_angle_beta   59.99999999
_cell_angle_gamma   60.00000003
_symmetry_Int_Tables_number   1
_chemical_formula_structural   Cs2SiF6
_chemical_formula_sum   'Cs2 Si1 F6'
_cell_volume   186.09496981
_cell_formula_units_Z   1
loop_
 _symmetry_equiv_pos_site_id
 _symmetry_equiv_pos_as_xyz
  1  'x, y, z'
loop_
 _atom_site_type_symbol
 _atom_site_label
 _atom_site_symmetry_multiplicity
 _atom_site_fract_x
 _atom_site_fract_y
 _atom_site_fract_z
 _atom_site_occupancy
  F  F0  1  0.190314  0.809686  0.809686  1
  F  F1  1  0.190314  0.809686  0.190314  1
  F  F2  1  0.809686  0.190314  0.809686  1
  F  F3  1  0.809686  0.190314  0.190314  1
  F  F4  1  0.809686  0.809686  0.190314  1
  F  F5  1  0.190314  0.190314  0.809686  1
  Si  Si6  1  0.000000  0.000000  0.000000  1
  Cs  Cs7  1  0.750000  0.750000  0.750000  1
  Cs  Cs8  1  0.250000  0.250000  0.250000  1
