# generated using pymatgen
data_HoPO4
_symmetry_space_group_name_H-M   'P 1'
_cell_length_a   5.76029104
_cell_length_b   5.76029105
_cell_length_c   5.76029104
_cell_angle_alpha   105.95196927
_cell_angle_beta   105.95196926
_cell_angle_gamma   116.76531547
_symmetry_Int_Tables_number   1
_chemical_formula_structural   HoPO4
_chemical_formula_sum   'Ho2 P2 O8'
_cell_volume   145.32336652
_cell_formula_units_Z   2
loop_
 _symmetry_equiv_pos_site_id
 _symmetry_equiv_pos_as_xyz
  1  'x, y, z'
loop_
 _atom_site_type_symbol
 _atom_site_label
 _atom_site_symmetry_multiplicity
 _atom_site_fract_x
 _atom_site_fract_y
 _atom_site_fract_z
 _atom_site_occupancy
  O  O0  1  0.785951  0.361130  0.075179  1
  O  O1  1  0.710771  0.785951  0.924821  1
  O  O2  1  0.361130  0.785951  0.575179  1
  O  O3  1  0.785951  0.710771  0.424821  1
  O  O4  1  0.289229  0.214049  0.075179  1
  O  O5  1  0.214049  0.638870  0.924821  1
  O  O6  1  0.214049  0.289229  0.575179  1
  O  O7  1  0.638870  0.214049  0.424821  1
  P  P8  1  0.375000  0.625000  0.750000  1
  P  P9  1  0.625000  0.375000  0.250000  1
  Ho  Ho10  1  0.125000  0.875000  0.250000  1
  Ho  Ho11  1  0.875000  0.125000  0.750000  1
