# generated using pymatgen
data_Nd(SiNi)2
_symmetry_space_group_name_H-M   'P 1'
_cell_length_a   4.04991740
_cell_length_b   4.04991740
_cell_length_c   5.59398358
_cell_angle_alpha   111.22237772
_cell_angle_beta   111.22237766
_cell_angle_gamma   89.99999993
_symmetry_Int_Tables_number   1
_chemical_formula_structural   Nd(SiNi)2
_chemical_formula_sum   'Nd1 Si2 Ni2'
_cell_volume   78.81713265
_cell_formula_units_Z   1
loop_
 _symmetry_equiv_pos_site_id
 _symmetry_equiv_pos_as_xyz
  1  'x, y, z'
loop_
 _atom_site_type_symbol
 _atom_site_label
 _atom_site_symmetry_multiplicity
 _atom_site_fract_x
 _atom_site_fract_y
 _atom_site_fract_z
 _atom_site_occupancy
  Si  Si0  1  0.630107  0.630107  0.260215  1
  Si  Si1  1  0.369893  0.369893  0.739785  1
  Ni  Ni2  1  0.750000  0.250000  0.500000  1
  Ni  Ni3  1  0.250000  0.750000  0.500000  1
  Nd  Nd4  1  0.000000  0.000000  0.000000  1
