# generated using pymatgen
data_ZrI2
_symmetry_space_group_name_H-M   'P 1'
_cell_length_a   3.77533354
_cell_length_b   6.92664874
_cell_length_c   16.32497485
_cell_angle_alpha   95.16104289
_cell_angle_beta   90.00000000
_cell_angle_gamma   90.00000000
_symmetry_Int_Tables_number   1
_chemical_formula_structural   ZrI2
_chemical_formula_sum   'Zr4 I8'
_cell_volume   425.17401336
_cell_formula_units_Z   4
loop_
 _symmetry_equiv_pos_site_id
 _symmetry_equiv_pos_as_xyz
  1  'x, y, z'
loop_
 _atom_site_type_symbol
 _atom_site_label
 _atom_site_symmetry_multiplicity
 _atom_site_fract_x
 _atom_site_fract_y
 _atom_site_fract_z
 _atom_site_occupancy
  Zr  Zr0  1  0.250000  0.686556  0.996827  1
  Zr  Zr1  1  0.250000  0.187831  0.503253  1
  Zr  Zr2  1  0.750000  0.313444  0.003173  1
  Zr  Zr3  1  0.750000  0.812169  0.496747  1
  I  I4  1  0.250000  0.601829  0.600714  1
  I  I5  1  0.750000  0.398171  0.399286  1
  I  I6  1  0.750000  0.552451  0.864391  1
  I  I7  1  0.750000  0.941322  0.100614  1
  I  I8  1  0.250000  0.447549  0.135609  1
  I  I9  1  0.750000  0.109645  0.635670  1
  I  I10  1  0.250000  0.058678  0.899386  1
  I  I11  1  0.250000  0.890355  0.364330  1
