# generated using pymatgen
data_NaMnF3
_symmetry_space_group_name_H-M   'P 1'
_cell_length_a   5.61993819
_cell_length_b   5.83364959
_cell_length_c   8.12383958
_cell_angle_alpha   90.00000000
_cell_angle_beta   90.00000000
_cell_angle_gamma   90.00000000
_symmetry_Int_Tables_number   1
_chemical_formula_structural   NaMnF3
_chemical_formula_sum   'Na4 Mn4 F12'
_cell_volume   266.33805063
_cell_formula_units_Z   4
loop_
 _symmetry_equiv_pos_site_id
 _symmetry_equiv_pos_as_xyz
  1  'x, y, z'
loop_
 _atom_site_type_symbol
 _atom_site_label
 _atom_site_symmetry_multiplicity
 _atom_site_fract_x
 _atom_site_fract_y
 _atom_site_fract_z
 _atom_site_occupancy
  F  F0  1  0.619083  0.553825  0.250000  1
  F  F1  1  0.119083  0.946175  0.750000  1
  F  F2  1  0.880917  0.053825  0.250000  1
  F  F3  1  0.380917  0.446175  0.750000  1
  F  F4  1  0.808588  0.304441  0.936886  1
  F  F5  1  0.308588  0.195559  0.063114  1
  F  F6  1  0.691412  0.804441  0.563114  1
  F  F7  1  0.191412  0.695559  0.436886  1
  F  F8  1  0.808588  0.304441  0.563114  1
  F  F9  1  0.308588  0.195559  0.436886  1
  F  F10  1  0.691412  0.804441  0.936886  1
  F  F11  1  0.191412  0.695559  0.063114  1
  Na  Na12  1  0.484584  0.943765  0.250000  1
  Na  Na13  1  0.984584  0.556235  0.750000  1
  Na  Na14  1  0.015416  0.443765  0.250000  1
  Na  Na15  1  0.515416  0.056235  0.750000  1
  Mn  Mn16  1  0.500000  0.500000  0.000000  1
  Mn  Mn17  1  0.000000  0.000000  0.000000  1
  Mn  Mn18  1  0.000000  0.000000  0.500000  1
  Mn  Mn19  1  0.500000  0.500000  0.500000  1
