# generated using pymatgen
data_Er5Si4
_symmetry_space_group_name_H-M   'P 1'
_cell_length_a   7.34214813
_cell_length_b   7.64408083
_cell_length_c   14.43550033
_cell_angle_alpha   90.00012388
_cell_angle_beta   90.00182018
_cell_angle_gamma   89.99978533
_symmetry_Int_Tables_number   1
_chemical_formula_structural   Er5Si4
_chemical_formula_sum   'Er20 Si16'
_cell_volume   810.17764169
_cell_formula_units_Z   4
loop_
 _symmetry_equiv_pos_site_id
 _symmetry_equiv_pos_as_xyz
  1  'x, y, z'
loop_
 _atom_site_type_symbol
 _atom_site_label
 _atom_site_symmetry_multiplicity
 _atom_site_fract_x
 _atom_site_fract_y
 _atom_site_fract_z
 _atom_site_occupancy
  Er  Er0  1  0.320420  0.822306  0.875682  1
  Er  Er1  1  0.021874  0.817252  0.403688  1
  Er  Er2  1  0.521846  0.682747  0.096282  1
  Er  Er3  1  0.820402  0.677688  0.624331  1
  Er  Er4  1  0.679590  0.177695  0.375787  1
  Er  Er5  1  0.652341  0.011189  0.750006  1
  Er  Er6  1  0.978139  0.182758  0.903444  1
  Er  Er7  1  0.478115  0.317246  0.596595  1
  Er  Er8  1  0.478139  0.317241  0.903439  1
  Er  Er9  1  0.021848  0.817246  0.096288  1
  Er  Er10  1  0.521874  0.682746  0.403686  1
  Er  Er11  1  0.978116  0.182755  0.596597  1
  Er  Er12  1  0.179567  0.322287  0.124193  1
  Er  Er13  1  0.847622  0.511271  0.249990  1
  Er  Er14  1  0.679571  0.177708  0.124190  1
  Er  Er15  1  0.347625  0.988728  0.249991  1
  Er  Er16  1  0.820425  0.677698  0.875685  1
  Er  Er17  1  0.152333  0.488814  0.750004  1
  Er  Er18  1  0.320401  0.822317  0.624330  1
  Er  Er19  1  0.179592  0.322299  0.375785  1
  Si  Si20  1  0.849066  0.469774  0.460794  1
  Si  Si21  1  0.523266  0.599915  0.750015  1
  Si  Si22  1  0.849048  0.469769  0.039201  1
  Si  Si23  1  0.650934  0.969840  0.539381  1
  Si  Si24  1  0.349067  0.030229  0.460797  1
  Si  Si25  1  0.976647  0.099766  0.249987  1
  Si  Si26  1  0.150953  0.530161  0.960624  1
  Si  Si27  1  0.476651  0.400232  0.249986  1
  Si  Si28  1  0.150932  0.530159  0.539380  1
  Si  Si29  1  0.349046  0.030232  0.039201  1
  Si  Si30  1  0.727422  0.868805  0.249978  1
  Si  Si31  1  0.650955  0.969841  0.960623  1
  Si  Si32  1  0.272739  0.131335  0.750022  1
  Si  Si33  1  0.227426  0.631195  0.249979  1
  Si  Si34  1  0.772741  0.368669  0.750024  1
  Si  Si35  1  0.023268  0.900088  0.750013  1
