# generated using pymatgen
data_VF4
_symmetry_space_group_name_H-M   'P 1'
_cell_length_a   5.24929500
_cell_length_b   5.43011561
_cell_length_c   5.74528938
_cell_angle_alpha   118.28529060
_cell_angle_beta   90.00000000
_cell_angle_gamma   90.00000000
_symmetry_Int_Tables_number   1
_chemical_formula_structural   VF4
_chemical_formula_sum   'V2 F8'
_cell_volume   144.21159172
_cell_formula_units_Z   2
loop_
 _symmetry_equiv_pos_site_id
 _symmetry_equiv_pos_as_xyz
  1  'x, y, z'
loop_
 _atom_site_type_symbol
 _atom_site_label
 _atom_site_symmetry_multiplicity
 _atom_site_fract_x
 _atom_site_fract_y
 _atom_site_fract_z
 _atom_site_occupancy
  F  F0  1  0.805402  0.337706  0.071553  1
  F  F1  1  0.305402  0.162294  0.928447  1
  F  F2  1  0.586038  0.348521  0.663191  1
  F  F3  1  0.086038  0.151479  0.336809  1
  F  F4  1  0.413962  0.651479  0.336809  1
  F  F5  1  0.913962  0.848521  0.663191  1
  F  F6  1  0.694598  0.837706  0.071553  1
  F  F7  1  0.194598  0.662294  0.928447  1
  V  V8  1  0.500000  0.500000  0.000000  1
  V  V9  1  0.000000  0.000000  0.000000  1
