# generated using pymatgen
data_LiFe2F6
_symmetry_space_group_name_H-M   'P 1'
_cell_length_a   4.75431565
_cell_length_b   4.75431565
_cell_length_c   9.42952484
_cell_angle_alpha   90.00000000
_cell_angle_beta   90.00000000
_cell_angle_gamma   90.00000000
_symmetry_Int_Tables_number   1
_chemical_formula_structural   LiFe2F6
_chemical_formula_sum   'Li2 Fe4 F12'
_cell_volume   213.14042785
_cell_formula_units_Z   2
loop_
 _symmetry_equiv_pos_site_id
 _symmetry_equiv_pos_as_xyz
  1  'x, y, z'
loop_
 _atom_site_type_symbol
 _atom_site_label
 _atom_site_symmetry_multiplicity
 _atom_site_fract_x
 _atom_site_fract_y
 _atom_site_fract_z
 _atom_site_occupancy
  Li  Li0  1  0.000000  0.000000  0.665625  1
  Li  Li1  1  0.500000  0.500000  0.165625  1
  Fe  Fe2  1  0.000000  0.000000  0.334959  1
  Fe  Fe3  1  0.500000  0.500000  0.834959  1
  Fe  Fe4  1  0.000000  0.000000  0.001670  1
  Fe  Fe5  1  0.500000  0.500000  0.501670  1
  F  F6  1  0.695319  0.695319  0.656726  1
  F  F7  1  0.804681  0.195319  0.156726  1
  F  F8  1  0.195319  0.804681  0.156726  1
  F  F9  1  0.304681  0.304681  0.656726  1
  F  F10  1  0.291079  0.291079  0.002745  1
  F  F11  1  0.208921  0.791079  0.502745  1
  F  F12  1  0.791079  0.208921  0.502745  1
  F  F13  1  0.708921  0.708921  0.002745  1
  F  F14  1  0.306228  0.306228  0.342953  1
  F  F15  1  0.193772  0.806228  0.842953  1
  F  F16  1  0.806228  0.193772  0.842953  1
  F  F17  1  0.693772  0.693772  0.342953  1
