# generated using pymatgen
data_Rb2NaMnF6
_symmetry_space_group_name_H-M   'P 1'
_cell_length_a   6.01984702
_cell_length_b   6.01984702
_cell_length_c   6.14599364
_cell_angle_alpha   119.32332918
_cell_angle_beta   119.32332918
_cell_angle_gamma   89.99999999
_symmetry_Int_Tables_number   1
_chemical_formula_structural   Rb2NaMnF6
_chemical_formula_sum   'Rb2 Na1 Mn1 F6'
_cell_volume   160.65562242
_cell_formula_units_Z   1
loop_
 _symmetry_equiv_pos_site_id
 _symmetry_equiv_pos_as_xyz
  1  'x, y, z'
loop_
 _atom_site_type_symbol
 _atom_site_label
 _atom_site_symmetry_multiplicity
 _atom_site_fract_x
 _atom_site_fract_y
 _atom_site_fract_z
 _atom_site_occupancy
  F  F0  1  0.760093  0.760093  0.520186  1
  F  F1  1  0.239907  0.239907  0.479814  1
  F  F2  1  0.775717  0.775717  0.000000  1
  F  F3  1  0.224283  0.775717  0.000000  1
  F  F4  1  0.224283  0.224283  0.000000  1
  F  F5  1  0.775717  0.224283  0.000000  1
  Na  Na6  1  0.500000  0.500000  0.000000  1
  Mn  Mn7  1  0.000000  0.000000  0.000000  1
  Rb  Rb8  1  0.750000  0.250000  0.500000  1
  Rb  Rb9  1  0.250000  0.750000  0.500000  1
