# generated using pymatgen
data_CeMnNi4
_symmetry_space_group_name_H-M   'P 1'
_cell_length_a   4.91361931
_cell_length_b   4.91361931
_cell_length_c   4.91361931
_cell_angle_alpha   60.00000008
_cell_angle_beta   60.00000007
_cell_angle_gamma   60.00000002
_symmetry_Int_Tables_number   1
_chemical_formula_structural   CeMnNi4
_chemical_formula_sum   'Ce1 Mn1 Ni4'
_cell_volume   83.88600662
_cell_formula_units_Z   1
loop_
 _symmetry_equiv_pos_site_id
 _symmetry_equiv_pos_as_xyz
  1  'x, y, z'
loop_
 _atom_site_type_symbol
 _atom_site_label
 _atom_site_symmetry_multiplicity
 _atom_site_fract_x
 _atom_site_fract_y
 _atom_site_fract_z
 _atom_site_occupancy
  Mn  Mn0  1  0.250000  0.250000  0.250000  1
  Ni  Ni1  1  0.623857  0.623857  0.623857  1
  Ni  Ni2  1  0.623857  0.128428  0.623857  1
  Ni  Ni3  1  0.623857  0.623857  0.128428  1
  Ni  Ni4  1  0.128428  0.623857  0.623857  1
  Ce  Ce5  1  0.000000  0.000000  0.000000  1
