# generated using pymatgen
data_Tb(SiPt)2
_symmetry_space_group_name_H-M   'P 1'
_cell_length_a   4.19888014
_cell_length_b   4.19887983
_cell_length_c   5.76597530
_cell_angle_alpha   111.35271848
_cell_angle_beta   111.35271668
_cell_angle_gamma   90.00000048
_symmetry_Int_Tables_number   1
_chemical_formula_structural   Tb(SiPt)2
_chemical_formula_sum   'Tb1 Si2 Pt2'
_cell_volume   87.14432831
_cell_formula_units_Z   1
loop_
 _symmetry_equiv_pos_site_id
 _symmetry_equiv_pos_as_xyz
  1  'x, y, z'
loop_
 _atom_site_type_symbol
 _atom_site_label
 _atom_site_symmetry_multiplicity
 _atom_site_fract_x
 _atom_site_fract_y
 _atom_site_fract_z
 _atom_site_occupancy
  Tb  Tb0  1  0.000000  0.000000  0.000000  1
  Si  Si1  1  0.382135  0.382135  0.764269  1
  Si  Si2  1  0.617865  0.617865  0.235731  1
  Pt  Pt3  1  0.750000  0.250000  0.500000  1
  Pt  Pt4  1  0.250000  0.750000  0.500000  1
