# generated using pymatgen
data_CsCuCl3
_symmetry_space_group_name_H-M   'P 1'
_cell_length_a   7.31131085
_cell_length_b   7.31131081
_cell_length_c   6.03053736
_cell_angle_alpha   90.00000000
_cell_angle_beta   90.00000000
_cell_angle_gamma   120.00000023
_symmetry_Int_Tables_number   1
_chemical_formula_structural   CsCuCl3
_chemical_formula_sum   'Cs2 Cu2 Cl6'
_cell_volume   279.17539437
_cell_formula_units_Z   2
loop_
 _symmetry_equiv_pos_site_id
 _symmetry_equiv_pos_as_xyz
  1  'x, y, z'
loop_
 _atom_site_type_symbol
 _atom_site_label
 _atom_site_symmetry_multiplicity
 _atom_site_fract_x
 _atom_site_fract_y
 _atom_site_fract_z
 _atom_site_occupancy
  Cs  Cs0  1  0.666667  0.333333  0.255197  1
  Cs  Cs1  1  0.333333  0.666667  0.755197  1
  Cu  Cu2  1  0.000000  0.000000  0.023755  1
  Cu  Cu3  1  0.000000  0.000000  0.523755  1
  Cl  Cl4  1  0.846781  0.153219  0.775349  1
  Cl  Cl5  1  0.153219  0.306438  0.275349  1
  Cl  Cl6  1  0.693562  0.846781  0.275349  1
  Cl  Cl7  1  0.153219  0.846781  0.275349  1
  Cl  Cl8  1  0.846781  0.693562  0.775349  1
  Cl  Cl9  1  0.306438  0.153219  0.775349  1
