# generated using pymatgen
data_NdCoSi2
_symmetry_space_group_name_H-M   'P 1'
_cell_length_a   4.07615115
_cell_length_b   4.16074063
_cell_length_c   8.42606323
_cell_angle_alpha   104.29397237
_cell_angle_beta   90.00000000
_cell_angle_gamma   90.00000000
_symmetry_Int_Tables_number   1
_chemical_formula_structural   NdCoSi2
_chemical_formula_sum   'Nd2 Co2 Si4'
_cell_volume   138.48033600
_cell_formula_units_Z   2
loop_
 _symmetry_equiv_pos_site_id
 _symmetry_equiv_pos_as_xyz
  1  'x, y, z'
loop_
 _atom_site_type_symbol
 _atom_site_label
 _atom_site_symmetry_multiplicity
 _atom_site_fract_x
 _atom_site_fract_y
 _atom_site_fract_z
 _atom_site_occupancy
  Si  Si0  1  0.250000  0.249788  0.499576  1
  Si  Si1  1  0.750000  0.750212  0.500424  1
  Si  Si2  1  0.750000  0.456522  0.913043  1
  Si  Si3  1  0.250000  0.543478  0.086957  1
  Co  Co4  1  0.750000  0.317991  0.635981  1
  Co  Co5  1  0.250000  0.682009  0.364019  1
  Nd  Nd6  1  0.250000  0.893381  0.786762  1
  Nd  Nd7  1  0.750000  0.106619  0.213238  1
