# generated using pymatgen
data_PrAlSi2
_symmetry_space_group_name_H-M   'P 1'
_cell_length_a   4.18153355
_cell_length_b   4.18153380
_cell_length_c   11.19717971
_cell_angle_alpha   90.00000000
_cell_angle_beta   90.00000000
_cell_angle_gamma   119.99999808
_symmetry_Int_Tables_number   1
_chemical_formula_structural   PrAlSi2
_chemical_formula_sum   'Pr2 Al2 Si4'
_cell_volume   169.55495508
_cell_formula_units_Z   2
loop_
 _symmetry_equiv_pos_site_id
 _symmetry_equiv_pos_as_xyz
  1  'x, y, z'
loop_
 _atom_site_type_symbol
 _atom_site_label
 _atom_site_symmetry_multiplicity
 _atom_site_fract_x
 _atom_site_fract_y
 _atom_site_fract_z
 _atom_site_occupancy
  Pr  Pr0  1  0.000000  0.000000  0.181268  1
  Pr  Pr1  1  0.000000  0.000000  0.818732  1
  Al  Al2  1  0.666667  0.333333  0.415413  1
  Al  Al3  1  0.333333  0.666667  0.584587  1
  Si  Si4  1  0.666667  0.333333  0.644329  1
  Si  Si5  1  0.333333  0.666667  0.995535  1
  Si  Si6  1  0.666667  0.333333  0.004465  1
  Si  Si7  1  0.333333  0.666667  0.355671  1
