# generated using pymatgen
data_Ca2SiH2O5
_symmetry_space_group_name_H-M   'P 1'
_cell_length_a   9.25228417
_cell_length_b   9.55313221
_cell_length_c   10.78915612
_cell_angle_alpha   90.00000000
_cell_angle_beta   90.00000000
_cell_angle_gamma   90.00000000
_symmetry_Int_Tables_number   1
_chemical_formula_structural   Ca2SiH2O5
_chemical_formula_sum   'Ca16 Si8 H16 O40'
_cell_volume   953.63510229
_cell_formula_units_Z   8
loop_
 _symmetry_equiv_pos_site_id
 _symmetry_equiv_pos_as_xyz
  1  'x, y, z'
loop_
 _atom_site_type_symbol
 _atom_site_label
 _atom_site_symmetry_multiplicity
 _atom_site_fract_x
 _atom_site_fract_y
 _atom_site_fract_z
 _atom_site_occupancy
  Ca  Ca0  1  0.831619  0.516996  0.930402  1
  Ca  Ca1  1  0.331619  0.483004  0.569598  1
  Ca  Ca2  1  0.668381  0.016996  0.069598  1
  Ca  Ca3  1  0.168381  0.983004  0.430402  1
  Ca  Ca4  1  0.168381  0.483004  0.069598  1
  Ca  Ca5  1  0.668381  0.516996  0.430402  1
  Ca  Ca6  1  0.331619  0.983004  0.930402  1
  Ca  Ca7  1  0.831619  0.016996  0.569598  1
  Ca  Ca8  1  0.995249  0.654142  0.612189  1
  Ca  Ca9  1  0.495249  0.345859  0.887811  1
  Ca  Ca10  1  0.504751  0.154141  0.387811  1
  Ca  Ca11  1  0.004751  0.845858  0.112189  1
  Ca  Ca12  1  0.004751  0.345859  0.387811  1
  Ca  Ca13  1  0.504751  0.654142  0.112189  1
  Ca  Ca14  1  0.495249  0.845858  0.612189  1
  Ca  Ca15  1  0.995249  0.154141  0.887811  1
  Si  Si16  1  0.786256  0.831931  0.840732  1
  Si  Si17  1  0.286256  0.168069  0.659268  1
  Si  Si18  1  0.713744  0.331931  0.159268  1
  Si  Si19  1  0.213744  0.668069  0.340732  1
  Si  Si20  1  0.213744  0.168069  0.159268  1
  Si  Si21  1  0.713744  0.831931  0.340732  1
  Si  Si22  1  0.286256  0.668069  0.840732  1
  Si  Si23  1  0.786256  0.331931  0.659268  1
  O  O24  1  0.860202  0.945693  0.936073  1
  O  O25  1  0.360202  0.054307  0.563927  1
  O  O26  1  0.639798  0.445693  0.063927  1
  O  O27  1  0.139798  0.554307  0.436073  1
  O  O28  1  0.139798  0.054307  0.063927  1
  O  O29  1  0.639798  0.945693  0.436073  1
  O  O30  1  0.360202  0.554307  0.936073  1
  O  O31  1  0.860202  0.445693  0.563927  1
  O  O32  1  0.652526  0.750520  0.925184  1
  O  O33  1  0.152526  0.249480  0.574816  1
  O  O34  1  0.847474  0.250520  0.074816  1
  O  O35  1  0.347474  0.749480  0.425184  1
  O  O36  1  0.347474  0.249480  0.074816  1
  O  O37  1  0.847474  0.750520  0.425184  1
  O  O38  1  0.152526  0.749480  0.925184  1
  O  O39  1  0.652526  0.250520  0.574816  1
  O  O40  1  0.902204  0.706960  0.809340  1
  O  O41  1  0.402204  0.293040  0.690660  1
  O  O42  1  0.597796  0.206960  0.190660  1
  O  O43  1  0.097796  0.793040  0.309340  1
  O  O44  1  0.097796  0.293040  0.190660  1
  O  O45  1  0.597796  0.706960  0.309340  1
  O  O46  1  0.402204  0.793040  0.809340  1
  O  O47  1  0.902204  0.206960  0.690660  1
  O  O48  1  0.707232  0.900925  0.720798  1
  O  O49  1  0.207232  0.099075  0.779202  1
  O  O50  1  0.792768  0.400925  0.279202  1
  O  O51  1  0.292768  0.599075  0.220798  1
  O  O52  1  0.292768  0.099075  0.279202  1
  O  O53  1  0.792768  0.900925  0.220798  1
  O  O54  1  0.207232  0.599075  0.720798  1
  O  O55  1  0.707232  0.400925  0.779202  1
  O  O56  1  0.547177  0.607367  0.602337  1
  O  O57  1  0.047177  0.392633  0.897663  1
  O  O58  1  0.952823  0.107367  0.397663  1
  O  O59  1  0.452823  0.892633  0.102337  1
  O  O60  1  0.452823  0.392633  0.397663  1
  O  O61  1  0.952823  0.607367  0.102337  1
  O  O62  1  0.047177  0.892633  0.602337  1
  O  O63  1  0.547177  0.107367  0.897663  1
  H  H64  1  0.557497  0.760618  0.877610  1
  H  H65  1  0.057497  0.239382  0.622390  1
  H  H66  1  0.942503  0.260618  0.122390  1
  H  H67  1  0.442503  0.739382  0.377610  1
  H  H68  1  0.442503  0.239382  0.122390  1
  H  H69  1  0.942503  0.760618  0.377610  1
  H  H70  1  0.057497  0.739382  0.877610  1
  H  H71  1  0.557497  0.260618  0.622390  1
  H  H72  1  0.600315  0.572395  0.674391  1
  H  H73  1  0.100315  0.427605  0.825609  1
  H  H74  1  0.899685  0.072395  0.325609  1
  H  H75  1  0.399685  0.927605  0.174391  1
  H  H76  1  0.399685  0.427605  0.325609  1
  H  H77  1  0.899685  0.572395  0.174391  1
  H  H78  1  0.100315  0.927605  0.674391  1
  H  H79  1  0.600315  0.072395  0.825609  1
