# generated using pymatgen
data_GdBO3
_symmetry_space_group_name_H-M   'P 1'
_cell_length_a   5.27305835
_cell_length_b   5.27309702
_cell_length_c   6.52293793
_cell_angle_alpha   90.00262516
_cell_angle_beta   89.99425364
_cell_angle_gamma   120.00020958
_symmetry_Int_Tables_number   1
_chemical_formula_structural   GdBO3
_chemical_formula_sum   'Gd2 B2 O6'
_cell_volume   157.07291274
_cell_formula_units_Z   2
loop_
 _symmetry_equiv_pos_site_id
 _symmetry_equiv_pos_as_xyz
  1  'x, y, z'
loop_
 _atom_site_type_symbol
 _atom_site_label
 _atom_site_symmetry_multiplicity
 _atom_site_fract_x
 _atom_site_fract_y
 _atom_site_fract_z
 _atom_site_occupancy
  Gd  Gd0  1  0.999999  -0.000004  0.500003  1
  Gd  Gd1  1  0.000001  -0.000001  -0.000001  1
  B  B2  1  0.333327  0.666657  0.250011  1
  B  B3  1  0.666673  0.333339  0.749988  1
  O  O4  1  0.181425  0.818552  0.249984  1
  O  O5  1  0.181431  0.362866  0.250004  1
  O  O6  1  0.637126  0.818553  0.250032  1
  O  O7  1  0.818578  0.181448  0.750015  1
  O  O8  1  0.818574  0.637146  0.749996  1
  O  O9  1  0.362867  0.181444  0.749967  1
