# generated using pymatgen
data_Th(SiPd)2
_symmetry_space_group_name_H-M   'P 1'
_cell_length_a   4.22697062
_cell_length_b   4.22697062
_cell_length_c   5.87149793
_cell_angle_alpha   111.09753981
_cell_angle_beta   111.09753983
_cell_angle_gamma   90.00000008
_symmetry_Int_Tables_number   1
_chemical_formula_structural   Th(SiPd)2
_chemical_formula_sum   'Th1 Si2 Pd2'
_cell_volume   90.29758018
_cell_formula_units_Z   1
loop_
 _symmetry_equiv_pos_site_id
 _symmetry_equiv_pos_as_xyz
  1  'x, y, z'
loop_
 _atom_site_type_symbol
 _atom_site_label
 _atom_site_symmetry_multiplicity
 _atom_site_fract_x
 _atom_site_fract_y
 _atom_site_fract_z
 _atom_site_occupancy
  Si  Si0  1  0.617141  0.617141  0.234282  1
  Si  Si1  1  0.382859  0.382859  0.765718  1
  Pd  Pd2  1  0.750000  0.250000  0.500000  1
  Pd  Pd3  1  0.250000  0.750000  0.500000  1
  Th  Th4  1  0.000000  0.000000  0.000000  1
