# generated using pymatgen
data_SeCl
_symmetry_space_group_name_H-M   'P 1'
_cell_length_a   5.26405658
_cell_length_b   7.52999625
_cell_length_c   15.08410082
_cell_angle_alpha   90.00000000
_cell_angle_beta   90.00000000
_cell_angle_gamma   96.42575233
_symmetry_Int_Tables_number   1
_chemical_formula_structural   SeCl
_chemical_formula_sum   'Se8 Cl8'
_cell_volume   594.15227962
_cell_formula_units_Z   8
loop_
 _symmetry_equiv_pos_site_id
 _symmetry_equiv_pos_as_xyz
  1  'x, y, z'
loop_
 _atom_site_type_symbol
 _atom_site_label
 _atom_site_symmetry_multiplicity
 _atom_site_fract_x
 _atom_site_fract_y
 _atom_site_fract_z
 _atom_site_occupancy
  Se  Se0  1  0.050154  0.400485  0.139848  1
  Se  Se1  1  0.449846  0.599515  0.639848  1
  Se  Se2  1  0.949846  0.599515  0.860152  1
  Se  Se3  1  0.550154  0.400485  0.360152  1
  Se  Se4  1  0.807033  0.208216  0.053900  1
  Se  Se5  1  0.692967  0.791784  0.553900  1
  Se  Se6  1  0.192967  0.791784  0.946100  1
  Se  Se7  1  0.307033  0.208216  0.446100  1
  Cl  Cl8  1  0.866462  0.657018  0.140990  1
  Cl  Cl9  1  0.633538  0.342982  0.640990  1
  Cl  Cl10  1  0.133538  0.342982  0.859010  1
  Cl  Cl11  1  0.366462  0.657018  0.359010  1
  Cl  Cl12  1  0.500697  0.064374  0.140966  1
  Cl  Cl13  1  0.999303  0.935626  0.640966  1
  Cl  Cl14  1  0.499303  0.935626  0.859034  1
  Cl  Cl15  1  0.000697  0.064374  0.359034  1
