# generated using pymatgen
data_BiSe
_symmetry_space_group_name_H-M   'P 1'
_cell_length_a   4.23539935
_cell_length_b   4.23539764
_cell_length_c   13.04691702
_cell_angle_alpha   99.33312605
_cell_angle_beta   99.33311617
_cell_angle_gamma   89.99419958
_symmetry_Int_Tables_number   1
_chemical_formula_structural   BiSe
_chemical_formula_sum   'Bi2 Se2'
_cell_volume   227.80546487
_cell_formula_units_Z   2
loop_
 _symmetry_equiv_pos_site_id
 _symmetry_equiv_pos_as_xyz
  1  'x, y, z'
loop_
 _atom_site_type_symbol
 _atom_site_label
 _atom_site_symmetry_multiplicity
 _atom_site_fract_x
 _atom_site_fract_y
 _atom_site_fract_z
 _atom_site_occupancy
  Bi  Bi0  1  0.684090  0.684090  0.371099  1
  Bi  Bi1  1  0.312960  0.312960  0.628913  1
  Se  Se2  1  0.799145  0.799145  0.603703  1
  Se  Se3  1  0.195805  0.195805  0.396286  1
