# generated using pymatgen
data_U(SiOs)2
_symmetry_space_group_name_H-M   'P 1'
_cell_length_a   4.14381197
_cell_length_b   4.14381198
_cell_length_c   5.62323831
_cell_angle_alpha   111.62031767
_cell_angle_beta   111.62031776
_cell_angle_gamma   89.99999997
_symmetry_Int_Tables_number   1
_chemical_formula_structural   U(SiOs)2
_chemical_formula_sum   'U1 Si2 Os2'
_cell_volume   82.41310294
_cell_formula_units_Z   1
loop_
 _symmetry_equiv_pos_site_id
 _symmetry_equiv_pos_as_xyz
  1  'x, y, z'
loop_
 _atom_site_type_symbol
 _atom_site_label
 _atom_site_symmetry_multiplicity
 _atom_site_fract_x
 _atom_site_fract_y
 _atom_site_fract_z
 _atom_site_occupancy
  Si  Si0  1  0.623703  0.623703  0.247405  1
  Si  Si1  1  0.376297  0.376297  0.752595  1
  Os  Os2  1  0.750000  0.250000  0.500000  1
  Os  Os3  1  0.250000  0.750000  0.500000  1
  U  U4  1  0.000000  0.000000  0.000000  1
