# generated using pymatgen
data_SiO2
_symmetry_space_group_name_H-M   'P 1'
_cell_length_a   4.92079787
_cell_length_b   8.76541477
_cell_length_c   10.59042323
_cell_angle_alpha   90.00000000
_cell_angle_beta   90.00000000
_cell_angle_gamma   90.00000000
_symmetry_Int_Tables_number   1
_chemical_formula_structural   SiO2
_chemical_formula_sum   'Si12 O24'
_cell_volume   456.79497066
_cell_formula_units_Z   12
loop_
 _symmetry_equiv_pos_site_id
 _symmetry_equiv_pos_as_xyz
  1  'x, y, z'
loop_
 _atom_site_type_symbol
 _atom_site_label
 _atom_site_symmetry_multiplicity
 _atom_site_fract_x
 _atom_site_fract_y
 _atom_site_fract_z
 _atom_site_occupancy
  Si  Si0  1  0.307854  0.286882  0.413059  1
  Si  Si1  1  0.192178  0.786850  0.081513  1
  Si  Si2  1  0.692146  0.786882  0.913059  1
  Si  Si3  1  0.500000  0.000000  0.279398  1
  Si  Si4  1  0.807822  0.213150  0.081513  1
  Si  Si5  1  0.307854  0.213118  0.913059  1
  Si  Si6  1  0.192178  0.713150  0.581513  1
  Si  Si7  1  0.000000  0.500000  0.215183  1
  Si  Si8  1  0.000000  0.000000  0.715183  1
  Si  Si9  1  0.807822  0.286850  0.581513  1
  Si  Si10  1  0.692146  0.713118  0.413059  1
  Si  Si11  1  0.500000  0.500000  0.779398  1
  O  O12  1  0.694952  0.890671  0.366077  1
  O  O13  1  0.194951  0.890668  0.628485  1
  O  O14  1  0.206967  0.395645  0.298518  1
  O  O15  1  0.194951  0.609332  0.128485  1
  O  O16  1  0.619807  0.179326  0.957491  1
  O  O17  1  0.305048  0.390671  0.866077  1
  O  O18  1  0.805049  0.109332  0.628485  1
  O  O19  1  0.706952  0.395633  0.696019  1
  O  O20  1  0.293048  0.604367  0.696019  1
  O  O21  1  0.793033  0.604355  0.298518  1
  O  O22  1  0.805049  0.390668  0.128485  1
  O  O23  1  0.293048  0.895633  0.196019  1
  O  O24  1  0.119825  0.320663  0.537047  1
  O  O25  1  0.793033  0.895645  0.798518  1
  O  O26  1  0.206967  0.104355  0.798518  1
  O  O27  1  0.119825  0.179337  0.037047  1
  O  O28  1  0.880175  0.820663  0.037047  1
  O  O29  1  0.694952  0.609329  0.866077  1
  O  O30  1  0.706952  0.104367  0.196019  1
  O  O31  1  0.880175  0.679337  0.537047  1
  O  O32  1  0.380193  0.679326  0.457491  1
  O  O33  1  0.619807  0.320674  0.457491  1
  O  O34  1  0.380193  0.820674  0.957491  1
  O  O35  1  0.305048  0.109329  0.366077  1
