# generated using pymatgen
data_Na2UO4
_symmetry_space_group_name_H-M   'P 1'
_cell_length_a   3.50546723
_cell_length_b   6.00317532
_cell_length_c   6.00317629
_cell_angle_alpha   112.22062108
_cell_angle_beta   90.00000000
_cell_angle_gamma   90.00000000
_symmetry_Int_Tables_number   1
_chemical_formula_structural   Na2UO4
_chemical_formula_sum   'Na2 U1 O4'
_cell_volume   116.94845859
_cell_formula_units_Z   1
loop_
 _symmetry_equiv_pos_site_id
 _symmetry_equiv_pos_as_xyz
  1  'x, y, z'
loop_
 _atom_site_type_symbol
 _atom_site_label
 _atom_site_symmetry_multiplicity
 _atom_site_fract_x
 _atom_site_fract_y
 _atom_site_fract_z
 _atom_site_occupancy
  O  O0  1  0.500000  0.194191  0.194251  1
  O  O1  1  0.000000  0.803659  0.196341  1
  O  O2  1  0.500000  0.805749  0.805809  1
  U  U3  1  0.000000  1.000175  -0.000175  1
  O  O4  1  0.000000  0.196894  0.803106  1
  Na  Na5  1  0.500000  1.000354  0.501022  1
  Na  Na6  1  0.500000  0.498978  -0.000354  1
