# generated using pymatgen
data_Ti3SiC2
_symmetry_space_group_name_H-M   'P 1'
_cell_length_a   3.07329032
_cell_length_b   3.07329032
_cell_length_c   17.75597178
_cell_angle_alpha   90.00000000
_cell_angle_beta   90.00000000
_cell_angle_gamma   120.00000000
_symmetry_Int_Tables_number   1
_chemical_formula_structural   Ti3SiC2
_chemical_formula_sum   'Ti6 Si2 C4'
_cell_volume   145.23866685
_cell_formula_units_Z   2
loop_
 _symmetry_equiv_pos_site_id
 _symmetry_equiv_pos_as_xyz
  1  'x, y, z'
loop_
 _atom_site_type_symbol
 _atom_site_label
 _atom_site_symmetry_multiplicity
 _atom_site_fract_x
 _atom_site_fract_y
 _atom_site_fract_z
 _atom_site_occupancy
  C  C0  1  0.333333  0.666667  0.427752  1
  C  C1  1  0.666667  0.333333  0.927752  1
  C  C2  1  0.333333  0.666667  0.072248  1
  C  C3  1  0.666667  0.333333  0.572248  1
  Si  Si4  1  0.000000  0.000000  0.750000  1
  Si  Si5  1  0.000000  0.000000  0.250000  1
  Ti  Ti6  1  0.666667  0.333333  0.365320  1
  Ti  Ti7  1  0.333333  0.666667  0.865320  1
  Ti  Ti8  1  0.333333  0.666667  0.634680  1
  Ti  Ti9  1  0.666667  0.333333  0.134680  1
  Ti  Ti10  1  0.000000  0.000000  0.500000  1
  Ti  Ti11  1  0.000000  0.000000  0.000000  1
