# generated using pymatgen
data_OsCl4
_symmetry_space_group_name_H-M   'P 1'
_cell_length_a   3.62938474
_cell_length_b   6.17234548
_cell_length_c   6.17234535
_cell_angle_alpha   94.53812627
_cell_angle_beta   90.00000000
_cell_angle_gamma   90.00000000
_symmetry_Int_Tables_number   1
_chemical_formula_structural   OsCl4
_chemical_formula_sum   'Os1 Cl4'
_cell_volume   137.83825276
_cell_formula_units_Z   1
loop_
 _symmetry_equiv_pos_site_id
 _symmetry_equiv_pos_as_xyz
  1  'x, y, z'
loop_
 _atom_site_type_symbol
 _atom_site_label
 _atom_site_symmetry_multiplicity
 _atom_site_fract_x
 _atom_site_fract_y
 _atom_site_fract_z
 _atom_site_occupancy
  Os  Os0  1  0.000000  0.000000  0.000000  1
  Cl  Cl1  1  0.000000  0.728613  0.728613  1
  Cl  Cl2  1  0.500000  0.827497  0.172503  1
  Cl  Cl3  1  0.500000  0.172503  0.827497  1
  Cl  Cl4  1  0.000000  0.271387  0.271387  1
