# generated using pymatgen
data_SrBiClO2
_symmetry_space_group_name_H-M   'P 1'
_cell_length_a   5.68054358
_cell_length_b   5.79314462
_cell_length_c   6.98743949
_cell_angle_alpha   114.48794249
_cell_angle_beta   89.99995928
_cell_angle_gamma   89.99997497
_symmetry_Int_Tables_number   1
_chemical_formula_structural   SrBiClO2
_chemical_formula_sum   'Sr2 Bi2 Cl2 O4'
_cell_volume   209.26031484
_cell_formula_units_Z   2
loop_
 _symmetry_equiv_pos_site_id
 _symmetry_equiv_pos_as_xyz
  1  'x, y, z'
loop_
 _atom_site_type_symbol
 _atom_site_label
 _atom_site_symmetry_multiplicity
 _atom_site_fract_x
 _atom_site_fract_y
 _atom_site_fract_z
 _atom_site_occupancy
  Cl  Cl0  1  0.750000  0.744422  0.488807  1
  Bi  Bi1  1  0.750000  0.080796  0.161463  1
  Bi  Bi2  1  0.250000  0.919204  0.838537  1
  Sr  Sr3  1  0.250001  0.607995  0.215995  1
  O  O4  1  0.499981  0.235436  -0.000004  1
  O  O5  1  0.000019  0.235436  -0.000003  1
  O  O6  1  0.999981  0.764564  1.000004  1
  Sr  Sr7  1  0.750001  0.392005  0.784006  1
  Cl  Cl8  1  0.250000  0.255577  0.511193  1
  O  O9  1  0.500019  0.764564  1.000003  1
