# generated using pymatgen
data_FeF3
_symmetry_space_group_name_H-M   'P 1'
_cell_length_a   5.52565903
_cell_length_b   5.52565903
_cell_length_c   6.77050943
_cell_angle_alpha   90.00000000
_cell_angle_beta   90.00000000
_cell_angle_gamma   120.00000006
_symmetry_Int_Tables_number   1
_chemical_formula_structural   FeF3
_chemical_formula_sum   'Fe3 F9'
_cell_volume   179.02766356
_cell_formula_units_Z   3
loop_
 _symmetry_equiv_pos_site_id
 _symmetry_equiv_pos_as_xyz
  1  'x, y, z'
loop_
 _atom_site_type_symbol
 _atom_site_label
 _atom_site_symmetry_multiplicity
 _atom_site_fract_x
 _atom_site_fract_y
 _atom_site_fract_z
 _atom_site_occupancy
  F  F0  1  0.666672  0.836160  0.833301  1
  F  F1  1  0.163840  0.830512  0.833301  1
  F  F2  1  0.169488  0.333328  0.833301  1
  F  F3  1  0.505250  0.505250  0.500000  1
  F  F4  1  0.494750  0.000000  0.500000  1
  F  F5  1  1.000000  0.494750  0.500000  1
  F  F6  1  0.836160  0.666672  0.166699  1
  F  F7  1  0.333328  0.169488  0.166699  1
  F  F8  1  0.830512  0.163840  0.166699  1
  Fe  Fe9  1  0.666667  0.333333  0.333358  1
  Fe  Fe10  1  0.333333  0.666667  0.666642  1
  Fe  Fe11  1  0.000000  0.000000  0.000000  1
