# generated using pymatgen
data_VF3
_symmetry_space_group_name_H-M   'P 1'
_cell_length_a   5.48732866
_cell_length_b   5.48732865
_cell_length_c   5.48732866
_cell_angle_alpha   57.57515354
_cell_angle_beta   57.57515361
_cell_angle_gamma   57.57515353
_symmetry_Int_Tables_number   1
_chemical_formula_structural   VF3
_chemical_formula_sum   'V2 F6'
_cell_volume   110.32034770
_cell_formula_units_Z   2
loop_
 _symmetry_equiv_pos_site_id
 _symmetry_equiv_pos_as_xyz
  1  'x, y, z'
loop_
 _atom_site_type_symbol
 _atom_site_label
 _atom_site_symmetry_multiplicity
 _atom_site_fract_x
 _atom_site_fract_y
 _atom_site_fract_z
 _atom_site_occupancy
  F  F0  1  0.149337  0.750000  0.350663  1
  F  F1  1  0.750000  0.350663  0.149337  1
  F  F2  1  0.649337  0.850663  0.250000  1
  F  F3  1  0.250000  0.649337  0.850663  1
  F  F4  1  0.850663  0.250000  0.649337  1
  F  F5  1  0.350663  0.149337  0.750000  1
  V  V6  1  0.500000  0.500000  0.500000  1
  V  V7  1  0.000000  0.000000  0.000000  1
