# generated using pymatgen
data_HfAlPt
_symmetry_space_group_name_H-M   'P 1'
_cell_length_a   7.15750923
_cell_length_b   7.15750891
_cell_length_c   7.14674994
_cell_angle_alpha   90.00000000
_cell_angle_beta   90.00000000
_cell_angle_gamma   120.00000141
_symmetry_Int_Tables_number   1
_chemical_formula_structural   HfAlPt
_chemical_formula_sum   'Hf6 Al6 Pt6'
_cell_volume   317.07574868
_cell_formula_units_Z   6
loop_
 _symmetry_equiv_pos_site_id
 _symmetry_equiv_pos_as_xyz
  1  'x, y, z'
loop_
 _atom_site_type_symbol
 _atom_site_label
 _atom_site_symmetry_multiplicity
 _atom_site_fract_x
 _atom_site_fract_y
 _atom_site_fract_z
 _atom_site_occupancy
  Hf  Hf0  1  0.411592  0.391296  0.250000  1
  Hf  Hf1  1  0.391296  0.411592  0.750000  1
  Hf  Hf2  1  0.608704  0.020297  0.250000  1
  Hf  Hf3  1  0.020297  0.608704  0.750000  1
  Hf  Hf4  1  0.588408  0.979703  0.750000  1
  Hf  Hf5  1  0.979703  0.588408  0.250000  1
  Al  Al6  1  1.000000  0.261110  0.000000  1
  Al  Al7  1  0.261110  0.000000  0.500000  1
  Al  Al8  1  0.261110  0.000000  0.000000  1
  Al  Al9  1  1.000000  0.261110  0.500000  1
  Al  Al10  1  0.738890  0.738890  0.000000  1
  Al  Al11  1  0.738890  0.738890  0.500000  1
  Pt  Pt12  1  0.333333  0.666667  0.472467  1
  Pt  Pt13  1  0.666667  0.333333  0.527533  1
  Pt  Pt14  1  0.000000  0.000000  0.250000  1
  Pt  Pt15  1  0.666667  0.333333  0.972467  1
  Pt  Pt16  1  0.333333  0.666667  0.027533  1
  Pt  Pt17  1  0.000000  0.000000  0.750000  1
