# generated using pymatgen
data_Sc2Si2O7
_symmetry_space_group_name_H-M   'P 1'
_cell_length_a   4.73692347
_cell_length_b   5.40394129
_cell_length_c   5.40394130
_cell_angle_alpha   105.28940863
_cell_angle_beta   97.77023667
_cell_angle_gamma   97.77023661
_symmetry_Int_Tables_number   1
_chemical_formula_structural   Sc2Si2O7
_chemical_formula_sum   'Sc2 Si2 O7'
_cell_volume   130.07958126
_cell_formula_units_Z   1
loop_
 _symmetry_equiv_pos_site_id
 _symmetry_equiv_pos_as_xyz
  1  'x, y, z'
loop_
 _atom_site_type_symbol
 _atom_site_label
 _atom_site_symmetry_multiplicity
 _atom_site_fract_x
 _atom_site_fract_y
 _atom_site_fract_z
 _atom_site_occupancy
  O  O0  1  0.788456  0.922622  0.607701  1
  O  O1  1  0.211544  0.392299  0.077378  1
  O  O2  1  0.211544  0.077378  0.392299  1
  O  O3  1  0.788456  0.607701  0.922622  1
  O  O4  1  0.500000  0.000000  0.000000  1
  O  O5  1  0.280362  0.605376  0.605376  1
  O  O6  1  0.719638  0.394624  0.394624  1
  Si  Si7  1  0.406635  0.223714  0.223714  1
  Si  Si8  1  0.593365  0.776286  0.776286  1
  Sc  Sc9  1  0.000000  0.310272  0.689728  1
  Sc  Sc10  1  0.000000  0.689728  0.310272  1
