# generated using pymatgen
data_Tm(SiPd)2
_symmetry_space_group_name_H-M   'P 1'
_cell_length_a   4.13073067
_cell_length_b   4.13073071
_cell_length_c   5.77411841
_cell_angle_alpha   110.95861403
_cell_angle_beta   110.95861424
_cell_angle_gamma   90.00000375
_symmetry_Int_Tables_number   1
_chemical_formula_structural   Tm(SiPd)2
_chemical_formula_sum   'Tm1 Si2 Pd2'
_cell_volume   84.98811934
_cell_formula_units_Z   1
loop_
 _symmetry_equiv_pos_site_id
 _symmetry_equiv_pos_as_xyz
  1  'x, y, z'
loop_
 _atom_site_type_symbol
 _atom_site_label
 _atom_site_symmetry_multiplicity
 _atom_site_fract_x
 _atom_site_fract_y
 _atom_site_fract_z
 _atom_site_occupancy
  Tm  Tm0  1  0.000000  0.000000  0.000000  1
  Si  Si1  1  0.384472  0.384472  0.768944  1
  Si  Si2  1  0.615528  0.615528  0.231056  1
  Pd  Pd3  1  0.750000  0.250000  0.500000  1
  Pd  Pd4  1  0.250000  0.750000  0.500000  1
