# generated using pymatgen
data_Eu(CoSi)2
_symmetry_space_group_name_H-M   'P 1'
_cell_length_a   3.95777361
_cell_length_b   3.95777295
_cell_length_c   5.74396277
_cell_angle_alpha   110.15224699
_cell_angle_beta   110.15224341
_cell_angle_gamma   89.99999822
_symmetry_Int_Tables_number   1
_chemical_formula_structural   Eu(CoSi)2
_chemical_formula_sum   'Eu1 Co2 Si2'
_cell_volume   78.57182935
_cell_formula_units_Z   1
loop_
 _symmetry_equiv_pos_site_id
 _symmetry_equiv_pos_as_xyz
  1  'x, y, z'
loop_
 _atom_site_type_symbol
 _atom_site_label
 _atom_site_symmetry_multiplicity
 _atom_site_fract_x
 _atom_site_fract_y
 _atom_site_fract_z
 _atom_site_occupancy
  Eu  Eu0  1  0.000000  0.000000  0.000000  1
  Co  Co1  1  0.250000  0.750000  0.500000  1
  Co  Co2  1  0.750000  0.250000  0.500000  1
  Si  Si3  1  0.367552  0.367552  0.735104  1
  Si  Si4  1  0.632448  0.632448  0.264896  1
