# generated using pymatgen
data_WO3
_symmetry_space_group_name_H-M   'P 1'
_cell_length_a   7.67910225
_cell_length_b   7.71959911
_cell_length_c   7.75591298
_cell_angle_alpha   89.81752331
_cell_angle_beta   89.95823144
_cell_angle_gamma   89.94620933
_symmetry_Int_Tables_number   1
_chemical_formula_structural   WO3
_chemical_formula_sum   'W8 O24'
_cell_volume   459.76469292
_cell_formula_units_Z   8
loop_
 _symmetry_equiv_pos_site_id
 _symmetry_equiv_pos_as_xyz
  1  'x, y, z'
loop_
 _atom_site_type_symbol
 _atom_site_label
 _atom_site_symmetry_multiplicity
 _atom_site_fract_x
 _atom_site_fract_y
 _atom_site_fract_z
 _atom_site_occupancy
  O  O0  1  0.767349  0.999058  0.503230  1
  O  O1  1  0.232651  0.000942  0.496770  1
  O  O2  1  0.766237  0.499142  0.996732  1
  O  O3  1  0.233763  0.500858  0.003268  1
  O  O4  1  0.733768  0.506773  0.496748  1
  O  O5  1  0.266232  0.493227  0.503252  1
  O  O6  1  0.732660  0.006677  0.003215  1
  O  O7  1  0.267340  0.993323  0.996785  1
  O  O8  1  0.001116  0.987579  0.767603  1
  O  O9  1  0.998884  0.012421  0.232397  1
  O  O10  1  0.500967  0.487157  0.766325  1
  O  O11  1  0.499033  0.512843  0.233675  1
  O  O12  1  0.000997  0.513064  0.733642  1
  O  O13  1  0.999003  0.486936  0.266358  1
  O  O14  1  0.501091  0.012627  0.732435  1
  O  O15  1  0.498909  0.987373  0.267565  1
  O  O16  1  0.262963  0.746660  0.745506  1
  O  O17  1  0.737037  0.253340  0.254494  1
  O  O18  1  0.237281  0.246620  0.754510  1
  O  O19  1  0.762719  0.753380  0.245490  1
  O  O20  1  0.237026  0.746611  0.253098  1
  O  O21  1  0.762974  0.253389  0.746902  1
  O  O22  1  0.262751  0.246568  0.246945  1
  O  O23  1  0.737249  0.753432  0.753055  1
  W  W24  1  0.753073  0.511577  0.734805  1
  W  W25  1  0.246927  0.488423  0.265195  1
  W  W26  1  0.755125  0.011106  0.765359  1
  W  W27  1  0.244875  0.988894  0.234641  1
  W  W28  1  0.746938  0.511279  0.234564  1
  W  W29  1  0.253062  0.488721  0.765436  1
  W  W30  1  0.744865  0.010811  0.265599  1
  W  W31  1  0.255135  0.989189  0.734401  1
