# generated using pymatgen
data_B2O
_symmetry_space_group_name_H-M   'P 1'
_cell_length_a   2.53394368
_cell_length_b   2.53394360
_cell_length_c   9.98507848
_cell_angle_alpha   90.00000000
_cell_angle_beta   90.00000000
_cell_angle_gamma   120.00000100
_symmetry_Int_Tables_number   1
_chemical_formula_structural   B2O
_chemical_formula_sum   'B4 O2'
_cell_volume   55.52339491
_cell_formula_units_Z   2
loop_
 _symmetry_equiv_pos_site_id
 _symmetry_equiv_pos_as_xyz
  1  'x, y, z'
loop_
 _atom_site_type_symbol
 _atom_site_label
 _atom_site_symmetry_multiplicity
 _atom_site_fract_x
 _atom_site_fract_y
 _atom_site_fract_z
 _atom_site_occupancy
  B  B0  1  0.000000  0.000000  0.587503  1
  B  B1  1  0.666667  0.333333  0.033133  1
  B  B2  1  0.000000  0.000000  0.412497  1
  B  B3  1  0.333333  0.666667  0.966867  1
  O  O4  1  0.333333  0.666667  0.643280  1
  O  O5  1  0.666667  0.333333  0.356720  1
