# generated using pymatgen
data_SiPt
_symmetry_space_group_name_H-M   'P 1'
_cell_length_a   3.63758309
_cell_length_b   5.66652223
_cell_length_c   5.98230908
_cell_angle_alpha   90.00000000
_cell_angle_beta   90.00000000
_cell_angle_gamma   90.00000000
_symmetry_Int_Tables_number   1
_chemical_formula_structural   SiPt
_chemical_formula_sum   'Si4 Pt4'
_cell_volume   123.31001953
_cell_formula_units_Z   4
loop_
 _symmetry_equiv_pos_site_id
 _symmetry_equiv_pos_as_xyz
  1  'x, y, z'
loop_
 _atom_site_type_symbol
 _atom_site_label
 _atom_site_symmetry_multiplicity
 _atom_site_fract_x
 _atom_site_fract_y
 _atom_site_fract_z
 _atom_site_occupancy
  Si  Si0  1  0.250000  0.678481  0.916686  1
  Si  Si1  1  0.750000  0.321519  0.083314  1
  Si  Si2  1  0.250000  0.178481  0.583314  1
  Si  Si3  1  0.750000  0.821519  0.416686  1
  Pt  Pt4  1  0.250000  0.494749  0.306408  1
  Pt  Pt5  1  0.750000  0.505251  0.693592  1
  Pt  Pt6  1  0.250000  0.994749  0.193592  1
  Pt  Pt7  1  0.750000  0.005251  0.806408  1
