# generated using pymatgen
data_CoCl2
_symmetry_space_group_name_H-M   'P 1'
_cell_length_a   12.71540678
_cell_length_b   5.65870513
_cell_length_c   6.59858783
_cell_angle_alpha   147.70044355
_cell_angle_beta   164.47087368
_cell_angle_gamma   28.68258637
_symmetry_Int_Tables_number   1
_chemical_formula_structural   CoCl2
_chemical_formula_sum   'Co1 Cl2'
_cell_volume   61.00910817
_cell_formula_units_Z   1
loop_
 _symmetry_equiv_pos_site_id
 _symmetry_equiv_pos_as_xyz
  1  'x, y, z'
loop_
 _atom_site_type_symbol
 _atom_site_label
 _atom_site_symmetry_multiplicity
 _atom_site_fract_x
 _atom_site_fract_y
 _atom_site_fract_z
 _atom_site_occupancy
  Co  Co0  1  0.000000  0.000000  0.000000  1
  Cl  Cl1  1  0.327403  0.111847  1.000000  1
  Cl  Cl2  1  0.672597  0.888154  0.000000  1
