# generated using pymatgen
data_Ni3O4
_symmetry_space_group_name_H-M   'P 1'
_cell_length_a   5.11654395
_cell_length_b   10.32159716
_cell_length_c   9.90882265
_cell_angle_alpha   16.25843264
_cell_angle_beta   29.37659506
_cell_angle_gamma   33.22082434
_symmetry_Int_Tables_number   1
_chemical_formula_structural   Ni3O4
_chemical_formula_sum   'Ni3 O4'
_cell_volume   71.86856970
_cell_formula_units_Z   1
loop_
 _symmetry_equiv_pos_site_id
 _symmetry_equiv_pos_as_xyz
  1  'x, y, z'
loop_
 _atom_site_type_symbol
 _atom_site_label
 _atom_site_symmetry_multiplicity
 _atom_site_fract_x
 _atom_site_fract_y
 _atom_site_fract_z
 _atom_site_occupancy
  Ni  Ni0  1  0.000000  0.000000  0.000000  1
  Ni  Ni1  1  0.500000  0.000000  0.500000  1
  Ni  Ni2  1  0.000000  0.500000  0.000000  1
  O  O3  1  0.205263  0.000000  0.294693  1
  O  O4  1  0.319373  0.500000  0.226920  1
  O  O5  1  0.794737  0.000000  0.705307  1
  O  O6  1  0.680627  0.500000  0.773080  1
