# generated using pymatgen
data_Mg3Al2(SiO4)3
_symmetry_space_group_name_H-M   'P 1'
_cell_length_a   10.02097870
_cell_length_b   10.02097870
_cell_length_c   10.02097870
_cell_angle_alpha   109.47122061
_cell_angle_beta   109.47122060
_cell_angle_gamma   109.47122064
_symmetry_Int_Tables_number   1
_chemical_formula_structural   Mg3Al2(SiO4)3
_chemical_formula_sum   'Mg12 Al8 Si12 O48'
_cell_volume   774.65535395
_cell_formula_units_Z   4
loop_
 _symmetry_equiv_pos_site_id
 _symmetry_equiv_pos_as_xyz
  1  'x, y, z'
loop_
 _atom_site_type_symbol
 _atom_site_label
 _atom_site_symmetry_multiplicity
 _atom_site_fract_x
 _atom_site_fract_y
 _atom_site_fract_z
 _atom_site_occupancy
  O  O0  1  0.703501  0.685953  0.082813  1
  O  O1  1  0.685953  0.103141  0.982452  1
  O  O2  1  0.620689  0.703501  0.517548  1
  O  O3  1  0.517548  0.620689  0.703501  1
  O  O4  1  0.082813  0.879311  0.396859  1
  O  O5  1  0.396859  0.082813  0.879311  1
  O  O6  1  0.103141  0.982452  0.685953  1
  O  O7  1  0.620689  0.417187  0.103141  1
  O  O8  1  0.517548  0.396859  0.814047  1
  O  O9  1  0.879311  0.982452  0.796499  1
  O  O10  1  0.417187  0.103141  0.620689  1
  O  O11  1  0.814047  0.517548  0.396859  1
  O  O12  1  0.982452  0.796499  0.879311  1
  O  O13  1  0.082813  0.703501  0.685953  1
  O  O14  1  0.685953  0.082813  0.703501  1
  O  O15  1  0.103141  0.620689  0.417187  1
  O  O16  1  0.814047  0.796499  0.417187  1
  O  O17  1  0.396859  0.814047  0.517548  1
  O  O18  1  0.417187  0.814047  0.796499  1
  O  O19  1  0.796499  0.879311  0.982452  1
  O  O20  1  0.796499  0.417187  0.814047  1
  O  O21  1  0.879311  0.396859  0.082813  1
  O  O22  1  0.982452  0.685953  0.103141  1
  O  O23  1  0.703501  0.517548  0.620689  1
  O  O24  1  0.296499  0.314047  0.917187  1
  O  O25  1  0.314047  0.896859  0.017548  1
  O  O26  1  0.379311  0.296499  0.482452  1
  O  O27  1  0.482452  0.379311  0.296499  1
  O  O28  1  0.917187  0.120689  0.603141  1
  O  O29  1  0.603141  0.917187  0.120689  1
  O  O30  1  0.896859  0.017548  0.314047  1
  O  O31  1  0.379311  0.582813  0.896859  1
  O  O32  1  0.482452  0.603141  0.185953  1
  O  O33  1  0.120689  0.017548  0.203501  1
  O  O34  1  0.582813  0.896859  0.379311  1
  O  O35  1  0.185953  0.482452  0.603141  1
  O  O36  1  0.017548  0.203501  0.120689  1
  O  O37  1  0.917187  0.296499  0.314047  1
  O  O38  1  0.314047  0.917187  0.296499  1
  O  O39  1  0.896859  0.379311  0.582813  1
  O  O40  1  0.185953  0.203501  0.582813  1
  O  O41  1  0.603141  0.185953  0.482452  1
  O  O42  1  0.582813  0.185953  0.203501  1
  O  O43  1  0.203501  0.120689  0.017548  1
  O  O44  1  0.203501  0.582813  0.185953  1
  O  O45  1  0.120689  0.603141  0.917187  1
  O  O46  1  0.017548  0.314047  0.896859  1
  O  O47  1  0.296499  0.482452  0.379311  1
  Mg  Mg48  1  0.250000  0.375000  0.125000  1
  Mg  Mg49  1  0.375000  0.750000  0.125000  1
  Mg  Mg50  1  0.125000  0.250000  0.375000  1
  Mg  Mg51  1  0.375000  0.125000  0.250000  1
  Mg  Mg52  1  0.125000  0.375000  0.750000  1
  Mg  Mg53  1  0.750000  0.125000  0.375000  1
  Mg  Mg54  1  0.750000  0.625000  0.875000  1
  Mg  Mg55  1  0.625000  0.250000  0.875000  1
  Mg  Mg56  1  0.875000  0.750000  0.625000  1
  Mg  Mg57  1  0.625000  0.875000  0.750000  1
  Mg  Mg58  1  0.875000  0.625000  0.250000  1
  Mg  Mg59  1  0.250000  0.875000  0.625000  1
  Al  Al60  1  0.000000  0.000000  0.000000  1
  Al  Al61  1  0.000000  0.500000  0.000000  1
  Al  Al62  1  0.000000  0.000000  0.500000  1
  Al  Al63  1  0.500000  0.000000  0.000000  1
  Al  Al64  1  0.000000  0.500000  0.500000  1
  Al  Al65  1  0.500000  0.000000  0.500000  1
  Al  Al66  1  0.500000  0.500000  0.000000  1
  Al  Al67  1  0.500000  0.500000  0.500000  1
  Si  Si68  1  0.250000  0.625000  0.375000  1
  Si  Si69  1  0.625000  0.750000  0.375000  1
  Si  Si70  1  0.875000  0.250000  0.125000  1
  Si  Si71  1  0.125000  0.875000  0.250000  1
  Si  Si72  1  0.375000  0.625000  0.750000  1
  Si  Si73  1  0.750000  0.375000  0.625000  1
  Si  Si74  1  0.875000  0.125000  0.750000  1
  Si  Si75  1  0.125000  0.750000  0.875000  1
  Si  Si76  1  0.625000  0.375000  0.250000  1
  Si  Si77  1  0.375000  0.250000  0.625000  1
  Si  Si78  1  0.750000  0.875000  0.125000  1
  Si  Si79  1  0.250000  0.125000  0.875000  1
