# generated using pymatgen
data_V2CN
_symmetry_space_group_name_H-M   'P 1'
_cell_length_a   5.84313951
_cell_length_b   7.75911849
_cell_length_c   5.09172809
_cell_angle_alpha   29.18376533
_cell_angle_beta   55.00642751
_cell_angle_gamma   41.01924663
_symmetry_Int_Tables_number   1
_chemical_formula_structural   V2CN
_chemical_formula_sum   'V4 C2 N2'
_cell_volume   71.20885524
_cell_formula_units_Z   2
loop_
 _symmetry_equiv_pos_site_id
 _symmetry_equiv_pos_as_xyz
  1  'x, y, z'
loop_
 _atom_site_type_symbol
 _atom_site_label
 _atom_site_symmetry_multiplicity
 _atom_site_fract_x
 _atom_site_fract_y
 _atom_site_fract_z
 _atom_site_occupancy
  V  V0  1  0.993663  0.003169  0.011296  1
  V  V1  1  0.506587  0.005892  0.979354  1
  V  V2  1  0.259206  0.501573  0.983774  1
  V  V3  1  0.742840  0.502805  0.011468  1
  C  C4  1  0.751911  0.001277  0.498145  1
  C  C5  1  0.500775  0.503980  0.496229  1
  N  N6  1  0.250141  0.003371  0.496285  1
  N  N7  1  0.000651  0.503779  0.495248  1
