# generated using pymatgen
data_ZrTe5
_symmetry_space_group_name_H-M   'P 1'
_cell_length_a   4.05266302
_cell_length_b   8.18496794
_cell_length_c   13.83963156
_cell_angle_alpha   90.00000000
_cell_angle_beta   90.00000000
_cell_angle_gamma   104.33361202
_symmetry_Int_Tables_number   1
_chemical_formula_structural   ZrTe5
_chemical_formula_sum   'Zr2 Te10'
_cell_volume   444.78262265
_cell_formula_units_Z   2
loop_
 _symmetry_equiv_pos_site_id
 _symmetry_equiv_pos_as_xyz
  1  'x, y, z'
loop_
 _atom_site_type_symbol
 _atom_site_label
 _atom_site_symmetry_multiplicity
 _atom_site_fract_x
 _atom_site_fract_y
 _atom_site_fract_z
 _atom_site_occupancy
  Zr  Zr0  1  0.313513  0.627026  0.750000  1
  Zr  Zr1  1  0.686487  0.372974  0.250000  1
  Te  Te2  1  0.672476  0.344952  0.750000  1
  Te  Te3  1  0.327524  0.655048  0.250000  1
  Te  Te4  1  0.919558  0.839115  0.850299  1
  Te  Te5  1  0.080442  0.160885  0.149701  1
  Te  Te6  1  0.080442  0.160885  0.350299  1
  Te  Te7  1  0.919558  0.839115  0.649701  1
  Te  Te8  1  0.213824  0.427648  0.565919  1
  Te  Te9  1  0.786176  0.572352  0.434081  1
  Te  Te10  1  0.786176  0.572352  0.065919  1
  Te  Te11  1  0.213824  0.427648  0.934081  1
