# generated using pymatgen
data_NaBiS2
_symmetry_space_group_name_H-M   'P 1'
_cell_length_a   8.07666575
_cell_length_b   10.80212113
_cell_length_c   7.16277114
_cell_angle_alpha   28.99381903
_cell_angle_beta   55.56600601
_cell_angle_gamma   41.44836484
_symmetry_Int_Tables_number   1
_chemical_formula_structural   NaBiS2
_chemical_formula_sum   'Na2 Bi2 S4'
_cell_volume   192.42937444
_cell_formula_units_Z   2
loop_
 _symmetry_equiv_pos_site_id
 _symmetry_equiv_pos_as_xyz
  1  'x, y, z'
loop_
 _atom_site_type_symbol
 _atom_site_label
 _atom_site_symmetry_multiplicity
 _atom_site_fract_x
 _atom_site_fract_y
 _atom_site_fract_z
 _atom_site_occupancy
  Na  Na0  1  0.001846  0.999338  0.998183  1
  Na  Na1  1  0.750139  0.498622  0.999733  1
  Bi  Bi2  1  0.238654  0.502759  0.995023  1
  Bi  Bi3  1  0.492963  0.995711  0.003293  1
  S  S4  1  0.022291  0.490628  0.484672  1
  S  S5  1  0.490903  0.510689  0.509955  1
  S  S6  1  0.262760  0.009570  0.464972  1
  S  S7  1  0.752463  0.985783  0.534299  1
