# generated using pymatgen
data_TiCuGe
_symmetry_space_group_name_H-M   'P 1'
_cell_length_a   5.13274820
_cell_length_b   7.10928479
_cell_length_c   9.11259238
_cell_angle_alpha   129.86557605
_cell_angle_beta   90.02177561
_cell_angle_gamma   43.89699450
_symmetry_Int_Tables_number   1
_chemical_formula_structural   TiCuGe
_chemical_formula_sum   'Ti2 Cu2 Ge2'
_cell_volume   88.12611692
_cell_formula_units_Z   2
loop_
 _symmetry_equiv_pos_site_id
 _symmetry_equiv_pos_as_xyz
  1  'x, y, z'
loop_
 _atom_site_type_symbol
 _atom_site_label
 _atom_site_symmetry_multiplicity
 _atom_site_fract_x
 _atom_site_fract_y
 _atom_site_fract_z
 _atom_site_occupancy
  Ti  Ti0  1  0.768009  0.502345  0.308370  1
  Ti  Ti1  1  0.273376  0.499253  0.706567  1
  Cu  Cu2  1  0.519028  0.502314  0.009535  1
  Cu  Cu3  1  0.023691  0.498271  0.006773  1
  Ge  Ge4  1  0.772213  0.499311  0.614513  1
  Ge  Ge5  1  0.272390  0.498506  0.398691  1
