# generated using pymatgen
data_ZrSn2
_symmetry_space_group_name_H-M   'P 1'
_cell_length_a   5.77526241
_cell_length_b   5.62868763
_cell_length_c   5.62868763
_cell_angle_alpha   118.90493396
_cell_angle_beta   75.41802040
_cell_angle_gamma   75.41802040
_symmetry_Int_Tables_number   1
_chemical_formula_structural   ZrSn2
_chemical_formula_sum   'Zr2 Sn4'
_cell_volume   139.14558998
_cell_formula_units_Z   2
loop_
 _symmetry_equiv_pos_site_id
 _symmetry_equiv_pos_as_xyz
  1  'x, y, z'
loop_
 _atom_site_type_symbol
 _atom_site_label
 _atom_site_symmetry_multiplicity
 _atom_site_fract_x
 _atom_site_fract_y
 _atom_site_fract_z
 _atom_site_occupancy
  Zr  Zr0  1  0.500000  0.250000  0.750000  1
  Zr  Zr1  1  0.000000  0.000000  0.000000  1
  Sn  Sn2  1  0.000000  0.331386  0.668614  1
  Sn  Sn3  1  0.500000  0.581386  0.418614  1
  Sn  Sn4  1  0.000000  0.668614  0.331386  1
  Sn  Sn5  1  0.500000  0.918614  0.081386  1
