# generated using pymatgen
data_KAgF4
_symmetry_space_group_name_H-M   'P 1'
_cell_length_a   6.05488924
_cell_length_b   6.05488924
_cell_length_c   7.26948591
_cell_angle_alpha   114.61124574
_cell_angle_beta   114.61124579
_cell_angle_gamma   90.00000004
_symmetry_Int_Tables_number   1
_chemical_formula_structural   KAgF4
_chemical_formula_sum   'K2 Ag2 F8'
_cell_volume   215.38414241
_cell_formula_units_Z   2
loop_
 _symmetry_equiv_pos_site_id
 _symmetry_equiv_pos_as_xyz
  1  'x, y, z'
loop_
 _atom_site_type_symbol
 _atom_site_label
 _atom_site_symmetry_multiplicity
 _atom_site_fract_x
 _atom_site_fract_y
 _atom_site_fract_z
 _atom_site_occupancy
  F  F0  1  0.951894  0.451894  0.232467  1
  F  F1  1  0.719427  0.219427  0.767533  1
  F  F2  1  0.048106  0.548106  0.767533  1
  F  F3  1  0.219427  0.048106  0.767533  1
  F  F4  1  0.280573  0.780573  0.232467  1
  F  F5  1  0.451894  0.280573  0.232467  1
  F  F6  1  0.780573  0.951894  0.232467  1
  F  F7  1  0.548106  0.719427  0.767533  1
  K  K8  1  0.250000  0.250000  0.500000  1
  K  K9  1  0.750000  0.750000  0.500000  1
  Ag  Ag10  1  0.000000  0.500000  0.000000  1
  Ag  Ag11  1  0.500000  0.000000  0.000000  1
