# generated using pymatgen
data_CaCu2O3
_symmetry_space_group_name_H-M   'P 1'
_cell_length_a   3.65126982
_cell_length_b   4.13628258
_cell_length_c   10.08905464
_cell_angle_alpha   90.00000000
_cell_angle_beta   90.00000000
_cell_angle_gamma   90.00000000
_symmetry_Int_Tables_number   1
_chemical_formula_structural   CaCu2O3
_chemical_formula_sum   'Ca2 Cu4 O6'
_cell_volume   152.37180158
_cell_formula_units_Z   2
loop_
 _symmetry_equiv_pos_site_id
 _symmetry_equiv_pos_as_xyz
  1  'x, y, z'
loop_
 _atom_site_type_symbol
 _atom_site_label
 _atom_site_symmetry_multiplicity
 _atom_site_fract_x
 _atom_site_fract_y
 _atom_site_fract_z
 _atom_site_occupancy
  O  O0  1  0.632773  0.750000  0.250000  1
  O  O1  1  0.367227  0.250000  0.750000  1
  O  O2  1  0.911578  0.250000  0.415118  1
  O  O3  1  0.088422  0.750000  0.915118  1
  O  O4  1  0.088422  0.750000  0.584882  1
  O  O5  1  0.911578  0.250000  0.084882  1
  Ca  Ca6  1  0.387778  0.250000  0.250000  1
  Ca  Ca7  1  0.612222  0.750000  0.750000  1
  Cu  Cu8  1  0.125279  0.250000  0.913703  1
  Cu  Cu9  1  0.125279  0.250000  0.586297  1
  Cu  Cu10  1  0.874721  0.750000  0.086297  1
  Cu  Cu11  1  0.874721  0.750000  0.413703  1
