# generated using pymatgen
data_Co3TeO8
_symmetry_space_group_name_H-M   'P 1'
_cell_length_a   5.70823124
_cell_length_b   5.70823146
_cell_length_c   5.86118062
_cell_angle_alpha   60.85954071
_cell_angle_beta   119.14045767
_cell_angle_gamma   119.99999618
_symmetry_Int_Tables_number   1
_chemical_formula_structural   Co3TeO8
_chemical_formula_sum   'Co3 Te1 O8'
_cell_volume   136.77133096
_cell_formula_units_Z   1
loop_
 _symmetry_equiv_pos_site_id
 _symmetry_equiv_pos_as_xyz
  1  'x, y, z'
loop_
 _atom_site_type_symbol
 _atom_site_label
 _atom_site_symmetry_multiplicity
 _atom_site_fract_x
 _atom_site_fract_y
 _atom_site_fract_z
 _atom_site_occupancy
  Co  Co0  1  0.500000  0.500000  0.000000  1
  Co  Co1  1  0.500000  0.000000  0.000000  1
  Co  Co2  1  0.000000  0.500000  0.000000  1
  Te  Te3  1  0.500000  0.500000  0.500000  1
  O  O4  1  0.742073  0.716775  0.767371  1
  O  O5  1  0.742073  0.257927  0.767371  1
  O  O6  1  0.273070  0.726930  0.819208  1
  O  O7  1  0.283225  0.257927  0.767371  1
  O  O8  1  0.716775  0.742073  0.232629  1
  O  O9  1  0.726930  0.273070  0.180792  1
  O  O10  1  0.257927  0.742073  0.232629  1
  O  O11  1  0.257927  0.283225  0.232629  1
