# generated using pymatgen
data_Li2V3O6
_symmetry_space_group_name_H-M   'P 1'
_cell_length_a   5.21154832
_cell_length_b   5.11566571
_cell_length_c   5.17116202
_cell_angle_alpha   59.64049524
_cell_angle_beta   71.89883109
_cell_angle_gamma   80.96526745
_symmetry_Int_Tables_number   1
_chemical_formula_structural   Li2V3O6
_chemical_formula_sum   'Li2 V3 O6'
_cell_volume   113.07312898
_cell_formula_units_Z   1
loop_
 _symmetry_equiv_pos_site_id
 _symmetry_equiv_pos_as_xyz
  1  'x, y, z'
loop_
 _atom_site_type_symbol
 _atom_site_label
 _atom_site_symmetry_multiplicity
 _atom_site_fract_x
 _atom_site_fract_y
 _atom_site_fract_z
 _atom_site_occupancy
  Li  Li0  1  1.000000  0.336597  0.331702  1
  Li  Li1  1  0.000000  0.663403  0.668298  1
  V  V2  1  0.500000  0.681395  0.159303  1
  V  V3  1  0.500000  0.000000  0.500000  1
  V  V4  1  0.500000  0.318605  0.840697  1
  O  O5  1  0.274694  0.000000  0.246561  1
  O  O6  1  0.285219  0.346422  0.559663  1
  O  O7  1  0.285219  0.653578  0.906085  1
  O  O8  1  0.714781  0.346422  0.093915  1
  O  O9  1  0.714781  0.653578  0.440337  1
  O  O10  1  0.725306  1.000000  0.753439  1
