# generated using pymatgen
data_NbSe2
_symmetry_space_group_name_H-M   'P 1'
_cell_length_a   3.48290722
_cell_length_b   3.48479324
_cell_length_c   12.46126104
_cell_angle_alpha   85.99538196
_cell_angle_beta   81.96665529
_cell_angle_gamma   60.01790162
_symmetry_Int_Tables_number   1
_chemical_formula_structural   NbSe2
_chemical_formula_sum   'Nb1 Se2'
_cell_volume   129.72002925
_cell_formula_units_Z   1
loop_
 _symmetry_equiv_pos_site_id
 _symmetry_equiv_pos_as_xyz
  1  'x, y, z'
loop_
 _atom_site_type_symbol
 _atom_site_label
 _atom_site_symmetry_multiplicity
 _atom_site_fract_x
 _atom_site_fract_y
 _atom_site_fract_z
 _atom_site_occupancy
  Se  Se0  1  0.810082  0.516245  0.863591  1
  Se  Se1  1  0.673673  0.516245  0.136409  1
  Nb  Nb2  1  0.075245  0.849511  0.000000  1
