# generated using pymatgen
data_TbI3
_symmetry_space_group_name_H-M   'P 1'
_cell_length_a   11.37454497
_cell_length_b   11.37454621
_cell_length_c   4.01455212
_cell_angle_alpha   90.00000000
_cell_angle_beta   90.00000000
_cell_angle_gamma   120.00000027
_symmetry_Int_Tables_number   1
_chemical_formula_structural   TbI3
_chemical_formula_sum   'Tb2 I6'
_cell_volume   449.81697716
_cell_formula_units_Z   2
loop_
 _symmetry_equiv_pos_site_id
 _symmetry_equiv_pos_as_xyz
  1  'x, y, z'
loop_
 _atom_site_type_symbol
 _atom_site_label
 _atom_site_symmetry_multiplicity
 _atom_site_fract_x
 _atom_site_fract_y
 _atom_site_fract_z
 _atom_site_occupancy
  Tb  Tb0  1  0.333333  0.666667  0.749999  1
  Tb  Tb1  1  0.666667  0.333333  0.250000  1
  I  I2  1  0.215001  0.430003  0.250000  1
  I  I3  1  0.569999  0.785000  0.250000  1
  I  I4  1  0.215002  0.785000  0.250000  1
  I  I5  1  0.784999  0.569999  0.749999  1
  I  I6  1  0.430003  0.215001  0.749999  1
  I  I7  1  0.784999  0.215001  0.749999  1
