# generated using pymatgen
data_BrCl
_symmetry_space_group_name_H-M   'P 1'
_cell_length_a   4.39476844
_cell_length_b   4.39476844
_cell_length_c   9.53694981
_cell_angle_alpha   90.00000000
_cell_angle_beta   90.00000000
_cell_angle_gamma   119.99998923
_symmetry_Int_Tables_number   1
_chemical_formula_structural   BrCl
_chemical_formula_sum   'Br2 Cl2'
_cell_volume   159.51890908
_cell_formula_units_Z   2
loop_
 _symmetry_equiv_pos_site_id
 _symmetry_equiv_pos_as_xyz
  1  'x, y, z'
loop_
 _atom_site_type_symbol
 _atom_site_label
 _atom_site_symmetry_multiplicity
 _atom_site_fract_x
 _atom_site_fract_y
 _atom_site_fract_z
 _atom_site_occupancy
  Br  Br0  1  0.000000  0.000000  0.073953  1
  Br  Br1  1  0.333334  0.666668  0.573953  1
  Cl  Cl2  1  0.000000  0.000000  0.301047  1
  Cl  Cl3  1  0.333334  0.666668  0.801048  1
