# generated using pymatgen
data_PrSiRu
_symmetry_space_group_name_H-M   'P 1'
_cell_length_a   4.23497759
_cell_length_b   4.23497759
_cell_length_c   7.08094155
_cell_angle_alpha   90.00000000
_cell_angle_beta   90.00000000
_cell_angle_gamma   90.00000000
_symmetry_Int_Tables_number   1
_chemical_formula_structural   PrSiRu
_chemical_formula_sum   'Pr2 Si2 Ru2'
_cell_volume   126.99693586
_cell_formula_units_Z   2
loop_
 _symmetry_equiv_pos_site_id
 _symmetry_equiv_pos_as_xyz
  1  'x, y, z'
loop_
 _atom_site_type_symbol
 _atom_site_label
 _atom_site_symmetry_multiplicity
 _atom_site_fract_x
 _atom_site_fract_y
 _atom_site_fract_z
 _atom_site_occupancy
  Si  Si0  1  0.250000  0.250000  0.169866  1
  Si  Si1  1  0.750000  0.750000  0.830134  1
  Ru  Ru2  1  0.750000  0.250000  0.000000  1
  Ru  Ru3  1  0.250000  0.750000  0.000000  1
  Pr  Pr4  1  0.250000  0.250000  0.679913  1
  Pr  Pr5  1  0.750000  0.750000  0.320087  1
