# generated using pymatgen
data_InCl3
_symmetry_space_group_name_H-M   'P 1'
_cell_length_a   9.64496038
_cell_length_b   9.64496321
_cell_length_c   3.43428551
_cell_angle_alpha   90.00024691
_cell_angle_beta   90.00015658
_cell_angle_gamma   120.00023244
_symmetry_Int_Tables_number   1
_chemical_formula_structural   InCl3
_chemical_formula_sum   'In2 Cl6'
_cell_volume   276.67316317
_cell_formula_units_Z   2
loop_
 _symmetry_equiv_pos_site_id
 _symmetry_equiv_pos_as_xyz
  1  'x, y, z'
loop_
 _atom_site_type_symbol
 _atom_site_label
 _atom_site_symmetry_multiplicity
 _atom_site_fract_x
 _atom_site_fract_y
 _atom_site_fract_z
 _atom_site_occupancy
  In  In0  1  0.666665  0.333336  0.250004  1
  In  In1  1  0.333334  0.666666  0.749996  1
  Cl  Cl2  1  0.781983  0.218016  0.750003  1
  Cl  Cl3  1  0.436034  0.218019  0.750003  1
  Cl  Cl4  1  0.781980  0.563961  0.750000  1
  Cl  Cl5  1  0.218017  0.781981  0.249994  1
  Cl  Cl6  1  0.563966  0.781981  0.250004  1
  Cl  Cl7  1  0.218020  0.436036  0.250003  1
