# generated using pymatgen
data_Ho2MgGe2
_symmetry_space_group_name_H-M   'P 1'
_cell_length_a   7.23769448
_cell_length_b   7.23769448
_cell_length_c   4.23862001
_cell_angle_alpha   90.00000000
_cell_angle_beta   90.00000000
_cell_angle_gamma   90.00000000
_symmetry_Int_Tables_number   1
_chemical_formula_structural   Ho2MgGe2
_chemical_formula_sum   'Ho4 Mg2 Ge4'
_cell_volume   222.03680897
_cell_formula_units_Z   2
loop_
 _symmetry_equiv_pos_site_id
 _symmetry_equiv_pos_as_xyz
  1  'x, y, z'
loop_
 _atom_site_type_symbol
 _atom_site_label
 _atom_site_symmetry_multiplicity
 _atom_site_fract_x
 _atom_site_fract_y
 _atom_site_fract_z
 _atom_site_occupancy
  Ho  Ho0  1  0.322885  0.177116  0.500001  1
  Ho  Ho1  1  0.822884  0.322885  0.500001  1
  Ho  Ho2  1  0.177116  0.677116  0.500001  1
  Ho  Ho3  1  0.677116  0.822884  0.500001  1
  Mg  Mg4  1  0.000000  0.000000  0.000000  1
  Mg  Mg5  1  0.500000  0.500000  0.000000  1
  Ge  Ge6  1  0.624052  0.124051  0.000000  1
  Ge  Ge7  1  0.124051  0.375948  0.000000  1
  Ge  Ge8  1  0.875948  0.624052  0.000000  1
  Ge  Ge9  1  0.375948  0.875948  0.000000  1
