# generated using pymatgen
data_ErI3
_symmetry_space_group_name_H-M   'P 1'
_cell_length_a   11.00894431
_cell_length_b   11.00894584
_cell_length_c   3.98025816
_cell_angle_alpha   90.00000000
_cell_angle_beta   90.00000000
_cell_angle_gamma   119.99999901
_symmetry_Int_Tables_number   1
_chemical_formula_structural   ErI3
_chemical_formula_sum   'Er2 I6'
_cell_volume   417.76618795
_cell_formula_units_Z   2
loop_
 _symmetry_equiv_pos_site_id
 _symmetry_equiv_pos_as_xyz
  1  'x, y, z'
loop_
 _atom_site_type_symbol
 _atom_site_label
 _atom_site_symmetry_multiplicity
 _atom_site_fract_x
 _atom_site_fract_y
 _atom_site_fract_z
 _atom_site_occupancy
  Er  Er0  1  0.333333  0.666667  0.749999  1
  Er  Er1  1  0.666667  0.333335  0.249999  1
  I  I2  1  0.211949  0.423897  0.249999  1
  I  I3  1  0.576102  0.788051  0.249999  1
  I  I4  1  0.211948  0.788051  0.249999  1
  I  I5  1  0.788050  0.576102  0.749999  1
  I  I6  1  0.423897  0.211949  0.749999  1
  I  I7  1  0.788051  0.211949  0.749999  1
