# generated using pymatgen
data_La2Si4CN6
_symmetry_space_group_name_H-M   'P 1'
_cell_length_a   6.03603417
_cell_length_b   10.21177969
_cell_length_c   10.60245656
_cell_angle_alpha   90.00000000
_cell_angle_beta   90.00000000
_cell_angle_gamma   90.00000000
_symmetry_Int_Tables_number   1
_chemical_formula_structural   La2Si4CN6
_chemical_formula_sum   'La8 Si16 C4 N24'
_cell_volume   653.52112119
_cell_formula_units_Z   4
loop_
 _symmetry_equiv_pos_site_id
 _symmetry_equiv_pos_as_xyz
  1  'x, y, z'
loop_
 _atom_site_type_symbol
 _atom_site_label
 _atom_site_symmetry_multiplicity
 _atom_site_fract_x
 _atom_site_fract_y
 _atom_site_fract_z
 _atom_site_occupancy
  La  La0  1  0.750001  0.047436  0.605668  1
  La  La1  1  0.250000  0.452565  0.105668  1
  La  La2  1  0.750001  0.407270  0.559392  1
  La  La3  1  0.250000  0.092730  0.059392  1
  La  La4  1  0.750001  0.907269  0.940608  1
  La  La5  1  0.250000  0.592730  0.440608  1
  La  La6  1  0.750001  0.547436  0.894332  1
  La  La7  1  0.250000  0.952564  0.394333  1
  Si  Si8  1  0.750001  0.517938  0.261354  1
  Si  Si9  1  0.250000  0.982062  0.761353  1
  Si  Si10  1  0.750001  0.017939  0.238647  1
  Si  Si11  1  0.250000  0.482062  0.738646  1
  Si  Si12  1  0.750001  0.298939  0.075153  1
  Si  Si13  1  0.250000  0.201061  0.575152  1
  Si  Si14  1  0.750001  0.798939  0.424848  1
  Si  Si15  1  0.250000  0.701061  0.924848  1
  Si  Si16  1  0.503465  0.727961  0.670325  1
  Si  Si17  1  0.496533  0.772039  0.170326  1
  Si  Si18  1  0.996533  0.227960  0.829675  1
  Si  Si19  1  0.003466  0.272039  0.329675  1
  Si  Si20  1  0.496533  0.272039  0.329675  1
  Si  Si21  1  0.503465  0.227960  0.829675  1
  Si  Si22  1  0.003466  0.772039  0.170326  1
  Si  Si23  1  0.996533  0.727961  0.670325  1
  C  C24  1  0.750001  0.205531  0.235233  1
  C  C25  1  0.250000  0.294470  0.735233  1
  C  C26  1  0.750001  0.705531  0.264766  1
  C  C27  1  0.250000  0.794469  0.764767  1
  N  N28  1  0.750001  0.967065  0.392665  1
  N  N29  1  0.250000  0.532935  0.892665  1
  N  N30  1  0.008627  0.719439  0.013822  1
  N  N31  1  0.991374  0.780561  0.513821  1
  N  N32  1  0.491373  0.219439  0.486179  1
  N  N33  1  0.508626  0.280561  0.986178  1
  N  N34  1  0.991374  0.280561  0.986178  1
  N  N35  1  0.008627  0.219439  0.486179  1
  N  N36  1  0.508626  0.780561  0.513821  1
  N  N37  1  0.980824  0.445856  0.335107  1
  N  N38  1  0.519174  0.445856  0.335107  1
  N  N39  1  0.480825  0.054144  0.835107  1
  N  N40  1  0.980824  0.945856  0.164892  1
  N  N41  1  0.019174  0.554145  0.664893  1
  N  N42  1  0.250000  0.229940  0.252739  1
  N  N43  1  0.750001  0.270060  0.752739  1
  N  N44  1  0.250000  0.729939  0.247260  1
  N  N45  1  0.750001  0.770060  0.747261  1
  N  N46  1  0.491373  0.719439  0.013822  1
  N  N47  1  0.480825  0.554145  0.664893  1
  N  N48  1  0.519174  0.945856  0.164892  1
  N  N49  1  0.019174  0.054144  0.835107  1
  N  N50  1  0.750001  0.467065  0.107335  1
  N  N51  1  0.250000  0.032936  0.607335  1
