# generated using pymatgen
data_SmI3
_symmetry_space_group_name_H-M   'P 1'
_cell_length_a   11.29408536
_cell_length_b   11.29408422
_cell_length_c   4.08679508
_cell_angle_alpha   90.00000000
_cell_angle_beta   90.00000000
_cell_angle_gamma   119.99999509
_symmetry_Int_Tables_number   1
_chemical_formula_structural   SmI3
_chemical_formula_sum   'Sm2 I6'
_cell_volume   451.45618028
_cell_formula_units_Z   2
loop_
 _symmetry_equiv_pos_site_id
 _symmetry_equiv_pos_as_xyz
  1  'x, y, z'
loop_
 _atom_site_type_symbol
 _atom_site_label
 _atom_site_symmetry_multiplicity
 _atom_site_fract_x
 _atom_site_fract_y
 _atom_site_fract_z
 _atom_site_occupancy
  Sm  Sm0  1  0.333334  0.666668  0.750000  1
  Sm  Sm1  1  0.666667  0.333333  0.249999  1
  I  I2  1  0.212566  0.425133  0.249999  1
  I  I3  1  0.574867  0.787434  0.249999  1
  I  I4  1  0.212566  0.787434  0.249999  1
  I  I5  1  0.787434  0.574867  0.750000  1
  I  I6  1  0.425134  0.212567  0.750000  1
  I  I7  1  0.787433  0.212567  0.750000  1
