# generated using pymatgen
data_ErCl3
_symmetry_space_group_name_H-M   'P 1'
_cell_length_a   9.73903735
_cell_length_b   9.73903465
_cell_length_c   3.55140289
_cell_angle_alpha   90.00000000
_cell_angle_beta   90.00000000
_cell_angle_gamma   120.00000241
_symmetry_Int_Tables_number   1
_chemical_formula_structural   ErCl3
_chemical_formula_sum   'Er2 Cl6'
_cell_volume   291.71751629
_cell_formula_units_Z   2
loop_
 _symmetry_equiv_pos_site_id
 _symmetry_equiv_pos_as_xyz
  1  'x, y, z'
loop_
 _atom_site_type_symbol
 _atom_site_label
 _atom_site_symmetry_multiplicity
 _atom_site_fract_x
 _atom_site_fract_y
 _atom_site_fract_z
 _atom_site_occupancy
  Er  Er0  1  0.333334  0.666668  0.750001  1
  Er  Er1  1  0.666667  0.333334  0.250001  1
  Cl  Cl2  1  0.217310  0.434621  0.250001  1
  Cl  Cl3  1  0.565378  0.782689  0.250001  1
  Cl  Cl4  1  0.217310  0.782689  0.250001  1
  Cl  Cl5  1  0.782690  0.565379  0.750001  1
  Cl  Cl6  1  0.434621  0.217310  0.750001  1
  Cl  Cl7  1  0.782689  0.217310  0.750001  1
