# generated using pymatgen
data_TiZnPt2
_symmetry_space_group_name_H-M   'P 1'
_cell_length_a   4.42834661
_cell_length_b   4.42834453
_cell_length_c   4.42835040
_cell_angle_alpha   59.99992911
_cell_angle_beta   59.99990883
_cell_angle_gamma   59.99997908
_symmetry_Int_Tables_number   1
_chemical_formula_structural   TiZnPt2
_chemical_formula_sum   'Ti1 Zn1 Pt2'
_cell_volume   61.40579930
_cell_formula_units_Z   1
loop_
 _symmetry_equiv_pos_site_id
 _symmetry_equiv_pos_as_xyz
  1  'x, y, z'
loop_
 _atom_site_type_symbol
 _atom_site_label
 _atom_site_symmetry_multiplicity
 _atom_site_fract_x
 _atom_site_fract_y
 _atom_site_fract_z
 _atom_site_occupancy
  Ti  Ti0  1  0.250000  0.250000  0.250000  1
  Zn  Zn1  1  0.750000  0.750000  0.750000  1
  Pt  Pt2  1  0.000000  1.000000  1.000000  1
  Pt  Pt3  1  0.499999  0.499999  0.499999  1
