# generated using pymatgen
data_Yb2AgGe
_symmetry_space_group_name_H-M   'P 1'
_cell_length_a   5.09252840
_cell_length_b   5.09252692
_cell_length_c   5.09252214
_cell_angle_alpha   60.00000675
_cell_angle_beta   59.99993909
_cell_angle_gamma   59.99995788
_symmetry_Int_Tables_number   1
_chemical_formula_structural   Yb2AgGe
_chemical_formula_sum   'Yb2 Ag1 Ge1'
_cell_volume   93.38656577
_cell_formula_units_Z   1
loop_
 _symmetry_equiv_pos_site_id
 _symmetry_equiv_pos_as_xyz
  1  'x, y, z'
loop_
 _atom_site_type_symbol
 _atom_site_label
 _atom_site_symmetry_multiplicity
 _atom_site_fract_x
 _atom_site_fract_y
 _atom_site_fract_z
 _atom_site_occupancy
  Yb  Yb0  1  -0.000000  -0.000000  -0.000000  1
  Yb  Yb1  1  0.499999  0.499999  0.499999  1
  Ag  Ag2  1  0.250000  0.250000  0.250000  1
  Ge  Ge3  1  0.750000  0.750000  0.750000  1
