# generated using pymatgen
data_ZnHg3
_symmetry_space_group_name_H-M   'P 1'
_cell_length_a   4.56323089
_cell_length_b   4.56323046
_cell_length_c   4.56323067
_cell_angle_alpha   90.00001180
_cell_angle_beta   90.00000276
_cell_angle_gamma   90.00001017
_symmetry_Int_Tables_number   1
_chemical_formula_structural   ZnHg3
_chemical_formula_sum   'Zn1 Hg3'
_cell_volume   95.02049080
_cell_formula_units_Z   1
loop_
 _symmetry_equiv_pos_site_id
 _symmetry_equiv_pos_as_xyz
  1  'x, y, z'
loop_
 _atom_site_type_symbol
 _atom_site_label
 _atom_site_symmetry_multiplicity
 _atom_site_fract_x
 _atom_site_fract_y
 _atom_site_fract_z
 _atom_site_occupancy
  Zn  Zn0  1  1.000000  1.000000  1.000000  1
  Hg  Hg1  1  -0.000000  0.499998  0.499998  1
  Hg  Hg2  1  0.499998  0.999999  0.499998  1
  Hg  Hg3  1  0.499998  0.499999  1.000000  1
