# generated using pymatgen
data_B2(CN2)3
_symmetry_space_group_name_H-M   'P 1'
_cell_length_a   6.26604814
_cell_length_b   6.26604814
_cell_length_c   6.26604842
_cell_angle_alpha   80.89462203
_cell_angle_beta   80.89462203
_cell_angle_gamma   80.89461653
_symmetry_Int_Tables_number   1
_chemical_formula_structural   B2(CN2)3
_chemical_formula_sum   'B2 C3 N6'
_cell_volume   237.61541547
_cell_formula_units_Z   1
loop_
 _symmetry_equiv_pos_site_id
 _symmetry_equiv_pos_as_xyz
  1  'x, y, z'
loop_
 _atom_site_type_symbol
 _atom_site_label
 _atom_site_symmetry_multiplicity
 _atom_site_fract_x
 _atom_site_fract_y
 _atom_site_fract_z
 _atom_site_occupancy
  B  B0  1  0.312599  0.312599  0.312599  1
  B  B1  1  0.687401  0.687401  0.687401  1
  C  C2  1  0.000000  0.591570  0.408430  1
  C  C3  1  0.408430  1.000000  0.591570  1
  C  C4  1  0.591570  0.408430  0.000000  1
  N  N5  1  0.148482  0.498997  0.291283  1
  N  N6  1  0.498997  0.291283  0.148482  1
  N  N7  1  0.851518  0.708717  0.501003  1
  N  N8  1  0.501003  0.851518  0.708717  1
  N  N9  1  0.708717  0.501003  0.851518  1
  N  N10  1  0.291283  0.148482  0.498997  1
