# generated using pymatgen
data_NaDyS2
_symmetry_space_group_name_H-M   'P 1'
_cell_length_a   3.99134559
_cell_length_b   3.99134564
_cell_length_c   7.05403505
_cell_angle_alpha   73.56590684
_cell_angle_beta   73.56590442
_cell_angle_gamma   59.99999957
_symmetry_Int_Tables_number   1
_chemical_formula_structural   NaDyS2
_chemical_formula_sum   'Na1 Dy1 S2'
_cell_volume   91.98159401
_cell_formula_units_Z   1
loop_
 _symmetry_equiv_pos_site_id
 _symmetry_equiv_pos_as_xyz
  1  'x, y, z'
loop_
 _atom_site_type_symbol
 _atom_site_label
 _atom_site_symmetry_multiplicity
 _atom_site_fract_x
 _atom_site_fract_y
 _atom_site_fract_z
 _atom_site_occupancy
  Na  Na0  1  0.500000  0.500000  0.500000  1
  Dy  Dy1  1  0.000000  0.000000  0.000000  1
  S  S2  1  0.742166  0.742166  0.773502  1
  S  S3  1  0.257834  0.257834  0.226498  1
