# generated using pymatgen
data_ReH3
_symmetry_space_group_name_H-M   'P 1'
_cell_length_a   4.40221404
_cell_length_b   4.40221450
_cell_length_c   2.90084469
_cell_angle_alpha   90.00000000
_cell_angle_beta   90.00000000
_cell_angle_gamma   120.00000433
_symmetry_Int_Tables_number   1
_chemical_formula_structural   ReH3
_chemical_formula_sum   'Re2 H6'
_cell_volume   48.68525453
_cell_formula_units_Z   2
loop_
 _symmetry_equiv_pos_site_id
 _symmetry_equiv_pos_as_xyz
  1  'x, y, z'
loop_
 _atom_site_type_symbol
 _atom_site_label
 _atom_site_symmetry_multiplicity
 _atom_site_fract_x
 _atom_site_fract_y
 _atom_site_fract_z
 _atom_site_occupancy
  Re  Re0  1  0.333333  0.666666  0.750000  1
  Re  Re1  1  0.666667  0.333334  0.250000  1
  H  H2  1  0.165867  0.331733  0.250000  1
  H  H3  1  0.668268  0.834133  0.250000  1
  H  H4  1  0.165865  0.834133  0.250000  1
  H  H5  1  0.834134  0.668267  0.750000  1
  H  H6  1  0.331731  0.165865  0.750000  1
  H  H7  1  0.834134  0.165865  0.750000  1
