# generated using pymatgen
data_RbCuBr3
_symmetry_space_group_name_H-M   'P 1'
_cell_length_a   5.20666735
_cell_length_b   5.21150980
_cell_length_c   5.21390000
_cell_angle_alpha   89.89015424
_cell_angle_beta   89.95867548
_cell_angle_gamma   89.90715298
_symmetry_Int_Tables_number   1
_chemical_formula_structural   RbCuBr3
_chemical_formula_sum   'Rb1 Cu1 Br3'
_cell_volume   141.47659785
_cell_formula_units_Z   1
loop_
 _symmetry_equiv_pos_site_id
 _symmetry_equiv_pos_as_xyz
  1  'x, y, z'
loop_
 _atom_site_type_symbol
 _atom_site_label
 _atom_site_symmetry_multiplicity
 _atom_site_fract_x
 _atom_site_fract_y
 _atom_site_fract_z
 _atom_site_occupancy
  Rb  Rb0  1  0.005493  0.990067  0.014277  1
  Cu  Cu1  1  0.506549  0.489575  0.514515  1
  Br  Br2  1  0.504048  0.492561  0.014066  1
  Br  Br3  1  0.507670  0.989820  0.512326  1
  Br  Br4  1  0.006242  0.487979  0.514815  1
