# generated using pymatgen
data_Re3Sn
_symmetry_space_group_name_H-M   'P 1'
_cell_length_a   5.72731946
_cell_length_b   5.72732059
_cell_length_c   4.58133068
_cell_angle_alpha   90.00000000
_cell_angle_beta   90.00000000
_cell_angle_gamma   120.00000514
_symmetry_Int_Tables_number   1
_chemical_formula_structural   Re3Sn
_chemical_formula_sum   'Re6 Sn2'
_cell_volume   130.14429979
_cell_formula_units_Z   2
loop_
 _symmetry_equiv_pos_site_id
 _symmetry_equiv_pos_as_xyz
  1  'x, y, z'
loop_
 _atom_site_type_symbol
 _atom_site_label
 _atom_site_symmetry_multiplicity
 _atom_site_fract_x
 _atom_site_fract_y
 _atom_site_fract_z
 _atom_site_occupancy
  Re  Re0  1  0.164366  0.328731  0.249999  1
  Re  Re1  1  0.671272  0.835637  0.249999  1
  Re  Re2  1  0.164365  0.835637  0.249999  1
  Re  Re3  1  0.835634  0.671270  0.750001  1
  Re  Re4  1  0.328730  0.164364  0.750001  1
  Re  Re5  1  0.835635  0.164364  0.750001  1
  Sn  Sn6  1  0.333334  0.666667  0.750001  1
  Sn  Sn7  1  0.666667  0.333332  0.249999  1
