# generated using pymatgen
data_ScGeRh2
_symmetry_space_group_name_H-M   'P 1'
_cell_length_a   4.42970785
_cell_length_b   4.42970785
_cell_length_c   4.42970785
_cell_angle_alpha   59.88448428
_cell_angle_beta   59.88448428
_cell_angle_gamma   59.88448428
_symmetry_Int_Tables_number   1
_chemical_formula_structural   ScGeRh2
_chemical_formula_sum   'Sc1 Ge1 Rh2'
_cell_volume   61.30141589
_cell_formula_units_Z   1
loop_
 _symmetry_equiv_pos_site_id
 _symmetry_equiv_pos_as_xyz
  1  'x, y, z'
loop_
 _atom_site_type_symbol
 _atom_site_label
 _atom_site_symmetry_multiplicity
 _atom_site_fract_x
 _atom_site_fract_y
 _atom_site_fract_z
 _atom_site_occupancy
  Sc  Sc0  1  0.750014  0.750014  0.750014  1
  Ge  Ge1  1  0.249983  0.249983  0.249983  1
  Rh  Rh2  1  0.000014  0.000014  0.000014  1
  Rh  Rh3  1  0.499989  0.499989  0.499989  1
