# generated using pymatgen
data_Si3Pt
_symmetry_space_group_name_H-M   'P 1'
_cell_length_a   7.40600534
_cell_length_b   7.40600689
_cell_length_c   2.75092440
_cell_angle_alpha   90.00000000
_cell_angle_beta   90.00000000
_cell_angle_gamma   119.99999310
_symmetry_Int_Tables_number   1
_chemical_formula_structural   Si3Pt
_chemical_formula_sum   'Si6 Pt2'
_cell_volume   130.67046895
_cell_formula_units_Z   2
loop_
 _symmetry_equiv_pos_site_id
 _symmetry_equiv_pos_as_xyz
  1  'x, y, z'
loop_
 _atom_site_type_symbol
 _atom_site_label
 _atom_site_symmetry_multiplicity
 _atom_site_fract_x
 _atom_site_fract_y
 _atom_site_fract_z
 _atom_site_occupancy
  Si  Si0  1  0.167978  0.335955  0.249999  1
  Si  Si1  1  0.664044  0.832022  0.249999  1
  Si  Si2  1  0.167978  0.832022  0.249999  1
  Si  Si3  1  0.832022  0.664044  0.750000  1
  Si  Si4  1  0.335956  0.167978  0.750000  1
  Si  Si5  1  0.832022  0.167978  0.750000  1
  Pt  Pt6  1  0.333333  0.666666  0.750000  1
  Pt  Pt7  1  0.666668  0.333333  0.249999  1
