# generated using pymatgen
data_Tb3Si
_symmetry_space_group_name_H-M   'P 1'
_cell_length_a   6.71183300
_cell_length_b   6.71183335
_cell_length_c   5.14407400
_cell_angle_alpha   90.00000000
_cell_angle_beta   90.00000000
_cell_angle_gamma   120.00000320
_symmetry_Int_Tables_number   1
_chemical_formula_structural   Tb3Si
_chemical_formula_sum   'Tb6 Si2'
_cell_volume   200.68741180
_cell_formula_units_Z   2
loop_
 _symmetry_equiv_pos_site_id
 _symmetry_equiv_pos_as_xyz
  1  'x, y, z'
loop_
 _atom_site_type_symbol
 _atom_site_label
 _atom_site_symmetry_multiplicity
 _atom_site_fract_x
 _atom_site_fract_y
 _atom_site_fract_z
 _atom_site_occupancy
  Tb  Tb0  1  0.177510  0.355019  0.249998  1
  Tb  Tb1  1  0.644982  0.822492  0.249998  1
  Tb  Tb2  1  0.177509  0.822492  0.249998  1
  Tb  Tb3  1  0.822490  0.644981  0.749999  1
  Tb  Tb4  1  0.355018  0.177509  0.749999  1
  Tb  Tb5  1  0.822491  0.177509  0.749999  1
  Si  Si6  1  0.333333  0.666667  0.749999  1
  Si  Si7  1  0.666666  0.333333  0.249998  1
