# generated using pymatgen
data_CaAgP
_symmetry_space_group_name_H-M   'P 1'
_cell_length_a   4.72550963
_cell_length_b   4.72550995
_cell_length_c   4.72551019
_cell_angle_alpha   60.00000672
_cell_angle_beta   60.00000448
_cell_angle_gamma   60.00000032
_symmetry_Int_Tables_number   1
_chemical_formula_structural   CaAgP
_chemical_formula_sum   'Ca1 Ag1 P1'
_cell_volume   74.61584785
_cell_formula_units_Z   1
loop_
 _symmetry_equiv_pos_site_id
 _symmetry_equiv_pos_as_xyz
  1  'x, y, z'
loop_
 _atom_site_type_symbol
 _atom_site_label
 _atom_site_symmetry_multiplicity
 _atom_site_fract_x
 _atom_site_fract_y
 _atom_site_fract_z
 _atom_site_occupancy
  Ca  Ca0  1  0.250000  0.250000  0.250000  1
  Ag  Ag1  1  0.500000  0.500000  0.500000  1
  P  P2  1  0.000000  0.000000  0.000000  1
