# generated using pymatgen
data_PaAgAu2
_symmetry_space_group_name_H-M   'P 1'
_cell_length_a   4.92231749
_cell_length_b   4.92231749
_cell_length_c   4.92231749
_cell_angle_alpha   59.96409028
_cell_angle_beta   59.96409028
_cell_angle_gamma   59.96409028
_symmetry_Int_Tables_number   1
_chemical_formula_structural   PaAgAu2
_chemical_formula_sum   'Pa1 Ag1 Au2'
_cell_volume   84.26360954
_cell_formula_units_Z   1
loop_
 _symmetry_equiv_pos_site_id
 _symmetry_equiv_pos_as_xyz
  1  'x, y, z'
loop_
 _atom_site_type_symbol
 _atom_site_label
 _atom_site_symmetry_multiplicity
 _atom_site_fract_x
 _atom_site_fract_y
 _atom_site_fract_z
 _atom_site_occupancy
  Pa  Pa0  1  0.749998  0.749998  0.749998  1
  Ag  Ag1  1  0.250001  0.250001  0.250001  1
  Au  Au2  1  0.000037  0.000037  0.000037  1
  Au  Au3  1  0.499963  0.499963  0.499963  1
