# generated using pymatgen
data_Al2CoOs
_symmetry_space_group_name_H-M   'P 1'
_cell_length_a   4.18212352
_cell_length_b   4.18212132
_cell_length_c   4.18212261
_cell_angle_alpha   59.99995173
_cell_angle_beta   59.99997327
_cell_angle_gamma   59.99996762
_symmetry_Int_Tables_number   1
_chemical_formula_structural   Al2CoOs
_chemical_formula_sum   'Al2 Co1 Os1'
_cell_volume   51.72195046
_cell_formula_units_Z   1
loop_
 _symmetry_equiv_pos_site_id
 _symmetry_equiv_pos_as_xyz
  1  'x, y, z'
loop_
 _atom_site_type_symbol
 _atom_site_label
 _atom_site_symmetry_multiplicity
 _atom_site_fract_x
 _atom_site_fract_y
 _atom_site_fract_z
 _atom_site_occupancy
  Al  Al0  1  0.500001  0.500001  0.500001  1
  Al  Al1  1  0.000000  0.000000  0.000000  1
  Co  Co2  1  0.250000  0.250000  0.250000  1
  Os  Os3  1  0.750001  0.750001  0.750001  1
