# generated using pymatgen
data_MgFe2O5
_symmetry_space_group_name_H-M   'P 1'
_cell_length_a   3.77931536
_cell_length_b   5.63946661
_cell_length_c   10.93145056
_cell_angle_alpha   90.00000000
_cell_angle_beta   90.00000000
_cell_angle_gamma   109.57723958
_symmetry_Int_Tables_number   1
_chemical_formula_structural   MgFe2O5
_chemical_formula_sum   'Mg2 Fe4 O10'
_cell_volume   219.51678820
_cell_formula_units_Z   2
loop_
 _symmetry_equiv_pos_site_id
 _symmetry_equiv_pos_as_xyz
  1  'x, y, z'
loop_
 _atom_site_type_symbol
 _atom_site_label
 _atom_site_symmetry_multiplicity
 _atom_site_fract_x
 _atom_site_fract_y
 _atom_site_fract_z
 _atom_site_occupancy
  Mg  Mg0  1  0.880888  0.761776  0.750000  1
  Mg  Mg1  1  0.119113  0.238225  0.250000  1
  Fe  Fe2  1  0.203929  0.407858  0.599500  1
  Fe  Fe3  1  0.796072  0.592143  0.400499  1
  Fe  Fe4  1  0.796072  0.592143  0.099501  1
  Fe  Fe5  1  0.203929  0.407858  0.900500  1
  O  O6  1  0.696696  0.393392  0.250000  1
  O  O7  1  0.303305  0.606609  0.750000  1
  O  O8  1  0.238392  0.476782  0.079831  1
  O  O9  1  0.761610  0.523219  0.920169  1
  O  O10  1  0.761610  0.523219  0.579831  1
  O  O11  1  0.238392  0.476782  0.420168  1
  O  O12  1  0.040502  0.081002  0.651461  1
  O  O13  1  0.959498  0.918997  0.348539  1
  O  O14  1  0.040502  0.081002  0.848539  1
  O  O15  1  0.959498  0.918997  0.151462  1
