# generated using pymatgen
data_TiF4
_symmetry_space_group_name_H-M   'P 1'
_cell_length_a   5.17257072
_cell_length_b   5.47301400
_cell_length_c   6.39160112
_cell_angle_alpha   122.83314640
_cell_angle_beta   107.36353710
_cell_angle_gamma   87.58723242
_symmetry_Int_Tables_number   1
_chemical_formula_structural   TiF4
_chemical_formula_sum   'Ti2 F8'
_cell_volume   143.48411738
_cell_formula_units_Z   2
loop_
 _symmetry_equiv_pos_site_id
 _symmetry_equiv_pos_as_xyz
  1  'x, y, z'
loop_
 _atom_site_type_symbol
 _atom_site_label
 _atom_site_symmetry_multiplicity
 _atom_site_fract_x
 _atom_site_fract_y
 _atom_site_fract_z
 _atom_site_occupancy
  Ti  Ti0  1  0.004269  0.528257  0.998407  1
  Ti  Ti1  1  0.569983  0.100021  0.997051  1
  F  F2  1  0.895325  0.384171  0.216735  1
  F  F3  1  0.666476  0.242341  0.784740  1
  F  F4  1  0.040967  0.585442  0.762173  1
  F  F5  1  0.208617  0.178008  0.853693  1
  F  F6  1  0.317999  0.702267  0.260779  1
  F  F7  1  0.450122  0.171697  0.253127  1
  F  F8  1  0.829062  0.861478  0.143261  1
  F  F9  1  0.501827  0.738957  0.717502  1
