# generated using pymatgen
data_AlCrO3
_symmetry_space_group_name_H-M   'P 1'
_cell_length_a   3.18012708
_cell_length_b   3.18012712
_cell_length_c   11.73804589
_cell_angle_alpha   90.00000000
_cell_angle_beta   90.00000000
_cell_angle_gamma   119.99999954
_symmetry_Int_Tables_number   1
_chemical_formula_structural   AlCrO3
_chemical_formula_sum   'Al2 Cr2 O6'
_cell_volume   102.80527353
_cell_formula_units_Z   2
loop_
 _symmetry_equiv_pos_site_id
 _symmetry_equiv_pos_as_xyz
  1  'x, y, z'
loop_
 _atom_site_type_symbol
 _atom_site_label
 _atom_site_symmetry_multiplicity
 _atom_site_fract_x
 _atom_site_fract_y
 _atom_site_fract_z
 _atom_site_occupancy
  Al  Al0  1  0.000000  0.000000  0.500000  1
  Al  Al1  1  0.000000  0.000000  0.000000  1
  Cr  Cr2  1  0.666665  0.333332  0.750000  1
  Cr  Cr3  1  0.333334  0.666668  0.250000  1
  O  O4  1  0.333334  0.666668  0.423538  1
  O  O5  1  0.666665  0.333332  0.923538  1
  O  O6  1  0.666665  0.333332  0.576463  1
  O  O7  1  0.333334  0.666668  0.076462  1
  O  O8  1  0.000000  0.000000  0.250000  1
  O  O9  1  0.000000  0.000000  0.750000  1
