# generated using pymatgen
data_Ti(WO4)2
_symmetry_space_group_name_H-M   'P 1'
_cell_length_a   5.02268922
_cell_length_b   6.88705386
_cell_length_c   6.23682426
_cell_angle_alpha   106.79593464
_cell_angle_beta   125.92486894
_cell_angle_gamma   88.31368640
_symmetry_Int_Tables_number   1
_chemical_formula_structural   Ti(WO4)2
_chemical_formula_sum   'Ti1 W2 O8'
_cell_volume   164.49724022
_cell_formula_units_Z   1
loop_
 _symmetry_equiv_pos_site_id
 _symmetry_equiv_pos_as_xyz
  1  'x, y, z'
loop_
 _atom_site_type_symbol
 _atom_site_label
 _atom_site_symmetry_multiplicity
 _atom_site_fract_x
 _atom_site_fract_y
 _atom_site_fract_z
 _atom_site_occupancy
  Ti  Ti0  1  0.124716  0.223342  0.099752  1
  W  W1  1  0.906193  0.403322  0.626640  1
  W  W2  1  0.342935  0.043012  0.572646  1
  O  O3  1  0.168134  0.639496  0.811210  1
  O  O4  1  0.503674  0.453922  0.347345  1
  O  O5  1  0.203357  0.188381  0.810772  1
  O  O6  1  0.446024  0.068569  0.328276  1
  O  O7  1  0.745602  0.992706  0.852024  1
  O  O8  1  0.081437  0.806669  0.387794  1
  O  O9  1  0.045721  0.257865  0.388499  1
  O  O10  1  0.803867  0.378345  0.871657  1
