# generated using pymatgen
data_YCrF5
_symmetry_space_group_name_H-M   'P 1'
_cell_length_a   4.23144737
_cell_length_b   5.80685696
_cell_length_c   5.80685652
_cell_angle_alpha   73.32706592
_cell_angle_beta   68.63247023
_cell_angle_gamma   68.63245672
_symmetry_Int_Tables_number   1
_chemical_formula_structural   YCrF5
_chemical_formula_sum   'Y1 Cr1 F5'
_cell_volume   121.77087648
_cell_formula_units_Z   1
loop_
 _symmetry_equiv_pos_site_id
 _symmetry_equiv_pos_as_xyz
  1  'x, y, z'
loop_
 _atom_site_type_symbol
 _atom_site_label
 _atom_site_symmetry_multiplicity
 _atom_site_fract_x
 _atom_site_fract_y
 _atom_site_fract_z
 _atom_site_occupancy
  Y  Y0  1  0.500000  0.500000  0.500000  1
  Cr  Cr1  1  0.000000  0.000000  0.000000  1
  F  F2  1  0.500000  0.816402  0.183598  1
  F  F3  1  0.500000  0.183598  0.816402  1
  F  F4  1  0.763965  0.236035  0.236035  1
  F  F5  1  0.236035  0.763965  0.763965  1
  F  F6  1  0.000000  0.500000  0.500000  1
