# generated using pymatgen
data_TiS2
_symmetry_space_group_name_H-M   'P 1'
_cell_length_a   5.82806201
_cell_length_b   5.82806017
_cell_length_c   6.49911864
_cell_angle_alpha   116.63937408
_cell_angle_beta   116.63936310
_cell_angle_gamma   89.99998687
_symmetry_Int_Tables_number   1
_chemical_formula_structural   TiS2
_chemical_formula_sum   'Ti2 S4'
_cell_volume   170.69672646
_cell_formula_units_Z   2
loop_
 _symmetry_equiv_pos_site_id
 _symmetry_equiv_pos_as_xyz
  1  'x, y, z'
loop_
 _atom_site_type_symbol
 _atom_site_label
 _atom_site_symmetry_multiplicity
 _atom_site_fract_x
 _atom_site_fract_y
 _atom_site_fract_z
 _atom_site_occupancy
  Ti  Ti0  1  0.250000  0.750000  0.500000  1
  Ti  Ti1  1  0.000000  0.000000  0.000000  1
  S  S2  1  0.916279  0.875000  0.250000  1
  S  S3  1  0.625000  0.083721  0.750000  1
  S  S4  1  0.333721  0.375000  0.250000  1
  S  S5  1  0.125000  0.666279  0.750000  1
