# generated using pymatgen
data_Zn2SbN3
_symmetry_space_group_name_H-M   'P 1'
_cell_length_a   5.82448400
_cell_length_b   10.10641800
_cell_length_c   5.46726600
_cell_angle_alpha   90.00000000
_cell_angle_beta   90.00000000
_cell_angle_gamma   90.00000000
_symmetry_Int_Tables_number   1
_chemical_formula_structural   Zn2SbN3
_chemical_formula_sum   'Zn8 Sb4 N12'
_cell_volume   321.82880855
_cell_formula_units_Z   4
loop_
 _symmetry_equiv_pos_site_id
 _symmetry_equiv_pos_as_xyz
  1  'x, y, z'
loop_
 _atom_site_type_symbol
 _atom_site_label
 _atom_site_symmetry_multiplicity
 _atom_site_fract_x
 _atom_site_fract_y
 _atom_site_fract_z
 _atom_site_occupancy
  Zn  Zn0  1  0.337513  0.827851  0.473205  1
  Zn  Zn1  1  0.837513  0.672149  0.473205  1
  Zn  Zn2  1  0.162487  0.672149  0.973205  1
  Zn  Zn3  1  0.662487  0.827851  0.973205  1
  Zn  Zn4  1  0.837513  0.327851  0.473205  1
  Zn  Zn5  1  0.337513  0.172149  0.473205  1
  Zn  Zn6  1  0.662487  0.172149  0.973205  1
  Zn  Zn7  1  0.162487  0.327851  0.973205  1
  Sb  Sb8  1  0.678043  0.500000  0.961588  1
  Sb  Sb9  1  0.821957  0.000000  0.461588  1
  Sb  Sb10  1  0.178043  0.000000  0.961588  1
  Sb  Sb11  1  0.321957  0.500000  0.461588  1
  N  N12  1  0.332383  0.835063  0.848296  1
  N  N13  1  0.832383  0.664937  0.848296  1
  N  N14  1  0.167617  0.664937  0.348296  1
  N  N15  1  0.667617  0.835063  0.348296  1
  N  N16  1  0.158196  0.000000  0.339791  1
  N  N17  1  0.341804  0.500000  0.839791  1
  N  N18  1  0.832383  0.335063  0.848296  1
  N  N19  1  0.332383  0.164937  0.848296  1
  N  N20  1  0.667617  0.164937  0.348296  1
  N  N21  1  0.167617  0.335063  0.348296  1
  N  N22  1  0.658196  0.500000  0.339791  1
  N  N23  1  0.841804  0.000000  0.839791  1
