# generated using pymatgen
data_NbTe2
_symmetry_space_group_name_H-M   'P 1'
_cell_length_a   3.66218439
_cell_length_b   7.81581806
_cell_length_c   9.60814127
_cell_angle_alpha   111.09443504
_cell_angle_beta   90.00000000
_cell_angle_gamma   103.54920266
_symmetry_Int_Tables_number   1
_chemical_formula_structural   NbTe2
_chemical_formula_sum   'Nb3 Te6'
_cell_volume   248.36327909
_cell_formula_units_Z   3
loop_
 _symmetry_equiv_pos_site_id
 _symmetry_equiv_pos_as_xyz
  1  'x, y, z'
loop_
 _atom_site_type_symbol
 _atom_site_label
 _atom_site_symmetry_multiplicity
 _atom_site_fract_x
 _atom_site_fract_y
 _atom_site_fract_z
 _atom_site_occupancy
  Nb  Nb0  1  0.000000  0.000000  0.000000  1
  Nb  Nb1  1  0.362893  0.725786  0.712706  1
  Nb  Nb2  1  0.637107  0.274214  0.287294  1
  Te  Te3  1  0.353203  0.706406  0.986632  1
  Te  Te4  1  0.646797  0.293594  0.013368  1
  Te  Te5  1  0.706937  0.413875  0.615512  1
  Te  Te6  1  0.293063  0.586125  0.384488  1
  Te  Te7  1  0.005215  0.010429  0.304867  1
  Te  Te8  1  0.994785  0.989571  0.695133  1
