# generated using pymatgen
data_Cr2GeC
_symmetry_space_group_name_H-M   'P 1'
_cell_length_a   2.93364618
_cell_length_b   2.93364617
_cell_length_c   12.01937715
_cell_angle_alpha   90.00000000
_cell_angle_beta   90.00000000
_cell_angle_gamma   120.00000007
_symmetry_Int_Tables_number   1
_chemical_formula_structural   Cr2GeC
_chemical_formula_sum   'Cr4 Ge2 C2'
_cell_volume   89.58350702
_cell_formula_units_Z   2
loop_
 _symmetry_equiv_pos_site_id
 _symmetry_equiv_pos_as_xyz
  1  'x, y, z'
loop_
 _atom_site_type_symbol
 _atom_site_label
 _atom_site_symmetry_multiplicity
 _atom_site_fract_x
 _atom_site_fract_y
 _atom_site_fract_z
 _atom_site_occupancy
  C  C0  1  0.000000  0.000000  0.500000  1
  C  C1  1  0.000000  0.000000  0.000000  1
  Cr  Cr2  1  0.666667  0.333333  0.585351  1
  Cr  Cr3  1  0.333333  0.666667  0.414649  1
  Cr  Cr4  1  0.333333  0.666667  0.085351  1
  Cr  Cr5  1  0.666667  0.333333  0.914649  1
  Ge  Ge6  1  0.666667  0.333333  0.250000  1
  Ge  Ge7  1  0.333333  0.666667  0.750000  1
