# generated using pymatgen
data_Nb5Si3
_symmetry_space_group_name_H-M   'P 1'
_cell_length_a   6.61319207
_cell_length_b   6.61317487
_cell_length_c   7.58741713
_cell_angle_alpha   115.83045938
_cell_angle_beta   115.83620708
_cell_angle_gamma   90.00000002
_symmetry_Int_Tables_number   1
_chemical_formula_structural   Nb5Si3
_chemical_formula_sum   'Nb10 Si6'
_cell_volume   261.33249248
_cell_formula_units_Z   2
loop_
 _symmetry_equiv_pos_site_id
 _symmetry_equiv_pos_as_xyz
  1  'x, y, z'
loop_
 _atom_site_type_symbol
 _atom_site_label
 _atom_site_symmetry_multiplicity
 _atom_site_fract_x
 _atom_site_fract_y
 _atom_site_fract_z
 _atom_site_occupancy
  Si  Si0  1  0.629060  0.129061  0.999974  1
  Si  Si1  1  0.870914  0.629061  0.999974  1
  Si  Si2  1  0.129086  0.370939  0.000026  1
  Si  Si3  1  0.370940  0.870939  0.000026  1
  Si  Si4  1  0.750024  0.750000  0.500000  1
  Si  Si5  1  0.249976  0.250000  0.500000  1
  Nb  Nb6  1  0.184556  0.016945  0.701452  1
  Nb  Nb7  1  0.016896  0.516945  0.701452  1
  Nb  Nb8  1  0.684569  0.184617  0.701377  1
  Nb  Nb9  1  0.983104  0.483055  0.298548  1
  Nb  Nb10  1  0.516808  0.684617  0.701377  1
  Nb  Nb11  1  0.815444  0.983055  0.298548  1
  Nb  Nb12  1  0.483192  0.315383  0.298623  1
  Nb  Nb13  1  0.315431  0.815383  0.298623  1
  Nb  Nb14  1  0.500000  0.500000  0.000000  1
  Nb  Nb15  1  0.000000  0.000000  0.000000  1
