# generated using pymatgen
data_TaAs2
_symmetry_space_group_name_H-M   'P 1'
_cell_length_a   3.42583178
_cell_length_b   5.02123511
_cell_length_c   7.07784695
_cell_angle_alpha   78.87401884
_cell_angle_beta   75.99474612
_cell_angle_gamma   70.05399875
_symmetry_Int_Tables_number   1
_chemical_formula_structural   TaAs2
_chemical_formula_sum   'Ta2 As4'
_cell_volume   110.23028998
_cell_formula_units_Z   2
loop_
 _symmetry_equiv_pos_site_id
 _symmetry_equiv_pos_as_xyz
  1  'x, y, z'
loop_
 _atom_site_type_symbol
 _atom_site_label
 _atom_site_symmetry_multiplicity
 _atom_site_fract_x
 _atom_site_fract_y
 _atom_site_fract_z
 _atom_site_occupancy
  As  As0  1  0.243863  0.746505  0.972309  1
  As  As1  1  0.962677  0.253495  0.027691  1
  As  As2  1  0.509007  0.796357  0.392465  1
  As  As3  1  0.697829  0.203643  0.607535  1
  Ta  Ta4  1  0.946434  0.618350  0.695405  1
  Ta  Ta5  1  0.260189  0.381650  0.304595  1
