# generated using pymatgen
data_SiPt2
_symmetry_space_group_name_H-M   'P 1'
_cell_length_a   6.55884899
_cell_length_b   6.55884931
_cell_length_c   3.60853641
_cell_angle_alpha   90.00000000
_cell_angle_beta   90.00000000
_cell_angle_gamma   120.00000288
_symmetry_Int_Tables_number   1
_chemical_formula_structural   SiPt2
_chemical_formula_sum   'Si3 Pt6'
_cell_volume   134.43643768
_cell_formula_units_Z   3
loop_
 _symmetry_equiv_pos_site_id
 _symmetry_equiv_pos_as_xyz
  1  'x, y, z'
loop_
 _atom_site_type_symbol
 _atom_site_label
 _atom_site_symmetry_multiplicity
 _atom_site_fract_x
 _atom_site_fract_y
 _atom_site_fract_z
 _atom_site_occupancy
  Si  Si0  1  0.666667  0.333333  0.000000  1
  Si  Si1  1  0.333333  0.666667  0.000000  1
  Si  Si2  1  -0.000000  -0.000000  0.500000  1
  Pt  Pt3  1  0.620401  0.000000  0.500000  1
  Pt  Pt4  1  0.379599  0.379599  0.500000  1
  Pt  Pt5  1  0.000000  0.620401  0.500000  1
  Pt  Pt6  1  0.000000  0.278310  0.000000  1
  Pt  Pt7  1  0.721690  0.721690  -0.000000  1
  Pt  Pt8  1  0.278310  0.000000  0.000000  1
