# generated using pymatgen
data_Rb2NaRhF6
_symmetry_space_group_name_H-M   'P 1'
_cell_length_a   6.12159345
_cell_length_b   6.12159346
_cell_length_c   6.12159346
_cell_angle_alpha   59.99999999
_cell_angle_beta   59.99999996
_cell_angle_gamma   60.00000003
_symmetry_Int_Tables_number   1
_chemical_formula_structural   Rb2NaRhF6
_chemical_formula_sum   'Rb2 Na1 Rh1 F6'
_cell_volume   162.21031013
_cell_formula_units_Z   1
loop_
 _symmetry_equiv_pos_site_id
 _symmetry_equiv_pos_as_xyz
  1  'x, y, z'
loop_
 _atom_site_type_symbol
 _atom_site_label
 _atom_site_symmetry_multiplicity
 _atom_site_fract_x
 _atom_site_fract_y
 _atom_site_fract_z
 _atom_site_occupancy
  F  F0  1  0.233558  0.766442  0.766442  1
  F  F1  1  0.233558  0.766442  0.233558  1
  F  F2  1  0.766442  0.233558  0.766442  1
  F  F3  1  0.233558  0.233558  0.766442  1
  F  F4  1  0.766442  0.233558  0.233558  1
  F  F5  1  0.766442  0.766442  0.233558  1
  Na  Na6  1  0.500000  0.500000  0.500000  1
  Rb  Rb7  1  0.250000  0.250000  0.250000  1
  Rb  Rb8  1  0.750000  0.750000  0.750000  1
  Rh  Rh9  1  0.000000  0.000000  0.000000  1
