# generated using pymatgen
data_NaFeO2
_symmetry_space_group_name_H-M   'P 1'
_cell_length_a   5.71256753
_cell_length_b   5.71256754
_cell_length_c   5.71256754
_cell_angle_alpha   31.07364508
_cell_angle_beta   31.07364503
_cell_angle_gamma   31.07364509
_symmetry_Int_Tables_number   1
_chemical_formula_structural   NaFeO2
_chemical_formula_sum   'Na1 Fe1 O2'
_cell_volume   44.06133848
_cell_formula_units_Z   1
loop_
 _symmetry_equiv_pos_site_id
 _symmetry_equiv_pos_as_xyz
  1  'x, y, z'
loop_
 _atom_site_type_symbol
 _atom_site_label
 _atom_site_symmetry_multiplicity
 _atom_site_fract_x
 _atom_site_fract_y
 _atom_site_fract_z
 _atom_site_occupancy
  O  O0  1  0.766185  0.766185  0.766185  1
  O  O1  1  0.233815  0.233815  0.233815  1
  Na  Na2  1  0.000000  0.000000  0.000000  1
  Fe  Fe3  1  0.500000  0.500000  0.500000  1
