# generated using pymatgen
data_CsPbCl3
_symmetry_space_group_name_H-M   'P 1'
_cell_length_a   5.73642575
_cell_length_b   5.73642575
_cell_length_c   5.72957771
_cell_angle_alpha   90.00000000
_cell_angle_beta   90.00000000
_cell_angle_gamma   90.00000000
_symmetry_Int_Tables_number   1
_chemical_formula_structural   CsPbCl3
_chemical_formula_sum   'Cs1 Pb1 Cl3'
_cell_volume   188.54080949
_cell_formula_units_Z   1
loop_
 _symmetry_equiv_pos_site_id
 _symmetry_equiv_pos_as_xyz
  1  'x, y, z'
loop_
 _atom_site_type_symbol
 _atom_site_label
 _atom_site_symmetry_multiplicity
 _atom_site_fract_x
 _atom_site_fract_y
 _atom_site_fract_z
 _atom_site_occupancy
  Cs  Cs0  1  0.000000  0.000000  -0.000687  1
  Pb  Pb1  1  0.500000  0.500000  0.498477  1
  Cl  Cl2  1  0.500000  0.500000  0.991260  1
  Cl  Cl3  1  0.000000  0.500000  0.498476  1
  Cl  Cl4  1  0.500000  0.000000  0.498476  1
