# generated using pymatgen
data_In2Ni3S2
_symmetry_space_group_name_H-M   'P 1'
_cell_length_a   5.50495062
_cell_length_b   5.50495062
_cell_length_c   5.50495062
_cell_angle_alpha   58.97003773
_cell_angle_beta   58.97003777
_cell_angle_gamma   58.97003771
_symmetry_Int_Tables_number   1
_chemical_formula_structural   In2Ni3S2
_chemical_formula_sum   'In2 Ni3 S2'
_cell_volume   115.19096332
_cell_formula_units_Z   1
loop_
 _symmetry_equiv_pos_site_id
 _symmetry_equiv_pos_as_xyz
  1  'x, y, z'
loop_
 _atom_site_type_symbol
 _atom_site_label
 _atom_site_symmetry_multiplicity
 _atom_site_fract_x
 _atom_site_fract_y
 _atom_site_fract_z
 _atom_site_occupancy
  S  S0  1  0.722946  0.722946  0.722946  1
  S  S1  1  0.277054  0.277054  0.277054  1
  Ni  Ni2  1  0.500000  0.000000  0.000000  1
  Ni  Ni3  1  0.000000  0.500000  0.000000  1
  Ni  Ni4  1  0.000000  0.000000  0.500000  1
  In  In5  1  0.500000  0.500000  0.500000  1
  In  In6  1  0.000000  0.000000  0.000000  1
