# generated using pymatgen
data_NaHF2
_symmetry_space_group_name_H-M   'P 1'
_cell_length_a   5.06552047
_cell_length_b   5.06552065
_cell_length_c   5.06552062
_cell_angle_alpha   40.32232525
_cell_angle_beta   40.32232277
_cell_angle_gamma   40.32232509
_symmetry_Int_Tables_number   1
_chemical_formula_structural   NaHF2
_chemical_formula_sum   'Na1 H1 F2'
_cell_volume   49.06877923
_cell_formula_units_Z   1
loop_
 _symmetry_equiv_pos_site_id
 _symmetry_equiv_pos_as_xyz
  1  'x, y, z'
loop_
 _atom_site_type_symbol
 _atom_site_label
 _atom_site_symmetry_multiplicity
 _atom_site_fract_x
 _atom_site_fract_y
 _atom_site_fract_z
 _atom_site_occupancy
  Na  Na0  1  0.000000  0.000000  0.000000  1
  H  H1  1  0.500000  0.500000  0.500000  1
  F  F2  1  0.417633  0.417633  0.417633  1
  F  F3  1  0.582367  0.582367  0.582367  1
