# generated using pymatgen
data_Bi2Te2Se
_symmetry_space_group_name_H-M   'P 1'
_cell_length_a   10.50925011
_cell_length_b   10.50925013
_cell_length_c   10.50924940
_cell_angle_alpha   23.95142089
_cell_angle_beta   23.95142064
_cell_angle_gamma   23.95142216
_symmetry_Int_Tables_number   1
_chemical_formula_structural   Bi2Te2Se
_chemical_formula_sum   'Bi2 Te2 Se1'
_cell_volume   168.07055282
_cell_formula_units_Z   1
loop_
 _symmetry_equiv_pos_site_id
 _symmetry_equiv_pos_as_xyz
  1  'x, y, z'
loop_
 _atom_site_type_symbol
 _atom_site_label
 _atom_site_symmetry_multiplicity
 _atom_site_fract_x
 _atom_site_fract_y
 _atom_site_fract_z
 _atom_site_occupancy
  Bi  Bi0  1  0.394061  0.394061  0.394061  1
  Bi  Bi1  1  0.605939  0.605939  0.605939  1
  Se  Se2  1  0.000000  0.000000  0.000000  1
  Te  Te3  1  0.214669  0.214669  0.214669  1
  Te  Te4  1  0.785331  0.785331  0.785331  1
