# generated using pymatgen
data_Li7Si2
_symmetry_space_group_name_H-M   'P 1'
_cell_length_a   4.46517553
_cell_length_b   8.04298590
_cell_length_c   14.93754200
_cell_angle_alpha   90.00000000
_cell_angle_beta   90.00000000
_cell_angle_gamma   90.00000000
_symmetry_Int_Tables_number   1
_chemical_formula_structural   Li7Si2
_chemical_formula_sum   'Li28 Si8'
_cell_volume   536.45708180
_cell_formula_units_Z   4
loop_
 _symmetry_equiv_pos_site_id
 _symmetry_equiv_pos_as_xyz
  1  'x, y, z'
loop_
 _atom_site_type_symbol
 _atom_site_label
 _atom_site_symmetry_multiplicity
 _atom_site_fract_x
 _atom_site_fract_y
 _atom_site_fract_z
 _atom_site_occupancy
  Li  Li0  1  0.000000  0.000000  0.000000  1
  Li  Li1  1  0.000000  0.500000  0.500000  1
  Li  Li2  1  0.500000  0.500000  0.000000  1
  Li  Li3  1  0.500000  0.000000  0.500000  1
  Li  Li4  1  0.500000  0.120467  0.356123  1
  Li  Li5  1  0.500000  0.879533  0.643877  1
  Li  Li6  1  0.500000  0.620467  0.143877  1
  Li  Li7  1  0.500000  0.379533  0.856123  1
  Li  Li8  1  0.500000  0.233698  0.102867  1
  Li  Li9  1  0.500000  0.766302  0.897133  1
  Li  Li10  1  0.500000  0.733698  0.397133  1
  Li  Li11  1  0.500000  0.266302  0.602867  1
  Li  Li12  1  0.500000  0.414282  0.258021  1
  Li  Li13  1  0.500000  0.585718  0.741979  1
  Li  Li14  1  0.500000  0.914282  0.241979  1
  Li  Li15  1  0.500000  0.085718  0.758021  1
  Li  Li16  1  0.000000  0.326497  0.987799  1
  Li  Li17  1  0.000000  0.673503  0.012201  1
  Li  Li18  1  0.000000  0.826497  0.512201  1
  Li  Li19  1  0.000000  0.173503  0.487799  1
  Li  Li20  1  0.000000  0.116312  0.189758  1
  Li  Li21  1  0.000000  0.883688  0.810242  1
  Li  Li22  1  0.000000  0.616312  0.310242  1
  Li  Li23  1  0.000000  0.383688  0.689758  1
  Li  Li24  1  0.000000  0.296135  0.333831  1
  Li  Li25  1  0.000000  0.703865  0.666169  1
  Li  Li26  1  0.000000  0.796135  0.166169  1
  Li  Li27  1  0.000000  0.203865  0.833831  1
  Si  Si28  1  0.500000  0.398127  0.436644  1
  Si  Si29  1  0.500000  0.601873  0.563356  1
  Si  Si30  1  0.500000  0.898127  0.063356  1
  Si  Si31  1  0.500000  0.101873  0.936644  1
  Si  Si32  1  0.000000  0.442658  0.153917  1
  Si  Si33  1  0.000000  0.557342  0.846083  1
  Si  Si34  1  0.000000  0.942658  0.346083  1
  Si  Si35  1  0.000000  0.057342  0.653917  1
