# generated using pymatgen
data_Cu(AsO2)2
_symmetry_space_group_name_H-M   'P 1'
_cell_length_a   5.64085794
_cell_length_b   8.88918257
_cell_length_c   8.88918257
_cell_angle_alpha   90.00000000
_cell_angle_beta   90.00000000
_cell_angle_gamma   90.00000000
_symmetry_Int_Tables_number   1
_chemical_formula_structural   Cu(AsO2)2
_chemical_formula_sum   'Cu4 As8 O16'
_cell_volume   445.72686887
_cell_formula_units_Z   4
loop_
 _symmetry_equiv_pos_site_id
 _symmetry_equiv_pos_as_xyz
  1  'x, y, z'
loop_
 _atom_site_type_symbol
 _atom_site_label
 _atom_site_symmetry_multiplicity
 _atom_site_fract_x
 _atom_site_fract_y
 _atom_site_fract_z
 _atom_site_occupancy
  O  O0  1  0.500000  0.878397  0.407600  1
  O  O1  1  0.500000  0.121603  0.592400  1
  O  O2  1  0.000000  0.407600  0.121603  1
  O  O3  1  0.000000  0.592400  0.878397  1
  O  O4  1  0.000000  0.907600  0.378397  1
  O  O5  1  0.500000  0.621603  0.907600  1
  O  O6  1  0.500000  0.378397  0.092400  1
  O  O7  1  0.000000  0.092400  0.621603  1
  O  O8  1  0.750000  0.707516  0.207516  1
  O  O9  1  0.250000  0.792484  0.707516  1
  O  O10  1  0.250000  0.207516  0.292484  1
  O  O11  1  0.750000  0.292484  0.792484  1
  O  O12  1  0.250000  0.707516  0.207516  1
  O  O13  1  0.750000  0.792484  0.707516  1
  O  O14  1  0.750000  0.207516  0.292484  1
  O  O15  1  0.250000  0.292484  0.792484  1
  Cu  Cu16  1  0.250000  0.000000  0.500000  1
  Cu  Cu17  1  0.750000  0.500000  0.000000  1
  Cu  Cu18  1  0.750000  0.000000  0.500000  1
  Cu  Cu19  1  0.250000  0.500000  0.000000  1
  As  As20  1  0.000000  0.792401  0.842606  1
  As  As21  1  0.500000  0.157394  0.792401  1
  As  As22  1  0.500000  0.842606  0.207599  1
  As  As23  1  0.000000  0.207599  0.157394  1
  As  As24  1  0.000000  0.707599  0.342606  1
  As  As25  1  0.000000  0.292401  0.657394  1
  As  As26  1  0.500000  0.657394  0.707599  1
  As  As27  1  0.500000  0.342606  0.292401  1
