# generated using pymatgen
data_Na4P2O7
_symmetry_space_group_name_H-M   'P 1'
_cell_length_a   5.46644487
_cell_length_b   9.43197343
_cell_length_c   13.66669008
_cell_angle_alpha   90.00000000
_cell_angle_beta   90.00000000
_cell_angle_gamma   90.00000000
_symmetry_Int_Tables_number   1
_chemical_formula_structural   Na4P2O7
_chemical_formula_sum   'Na16 P8 O28'
_cell_volume   704.64583171
_cell_formula_units_Z   4
loop_
 _symmetry_equiv_pos_site_id
 _symmetry_equiv_pos_as_xyz
  1  'x, y, z'
loop_
 _atom_site_type_symbol
 _atom_site_label
 _atom_site_symmetry_multiplicity
 _atom_site_fract_x
 _atom_site_fract_y
 _atom_site_fract_z
 _atom_site_occupancy
  O  O0  1  0.076271  0.914545  0.366944  1
  O  O1  1  0.576271  0.085455  0.133056  1
  O  O2  1  0.423729  0.414545  0.633056  1
  O  O3  1  0.923729  0.585455  0.866944  1
  O  O4  1  0.699327  0.070208  0.398553  1
  O  O5  1  0.199327  0.929792  0.101447  1
  O  O6  1  0.800673  0.570208  0.601447  1
  O  O7  1  0.300673  0.429792  0.898553  1
  O  O8  1  0.081694  0.177170  0.319752  1
  O  O9  1  0.581694  0.822830  0.180248  1
  O  O10  1  0.418306  0.677170  0.680248  1
  O  O11  1  0.918306  0.322830  0.819752  1
  O  O12  1  0.950669  0.898548  0.602189  1
  O  O13  1  0.450669  0.101452  0.897811  1
  O  O14  1  0.549331  0.398548  0.397811  1
  O  O15  1  0.049331  0.601452  0.102189  1
  O  O16  1  0.785747  0.147202  0.633275  1
  O  O17  1  0.285747  0.852798  0.866725  1
  O  O18  1  0.714253  0.647202  0.366725  1
  O  O19  1  0.214253  0.352798  0.133275  1
  O  O20  1  0.232324  0.093383  0.669706  1
  O  O21  1  0.732324  0.906617  0.830294  1
  O  O22  1  0.267676  0.593383  0.330294  1
  O  O23  1  0.767676  0.406617  0.169706  1
  O  O24  1  0.902464  0.389947  0.996312  1
  O  O25  1  0.402464  0.610053  0.503688  1
  O  O26  1  0.597536  0.889947  0.003688  1
  O  O27  1  0.097536  0.110053  0.496312  1
  Na  Na28  1  0.499928  0.277196  0.016313  1
  Na  Na29  1  -0.000072  0.722804  0.483687  1
  Na  Na30  1  1.000072  0.777196  0.983687  1
  Na  Na31  1  0.500072  0.222804  0.516313  1
  Na  Na32  1  0.516481  0.258979  0.763984  1
  Na  Na33  1  0.016481  0.741021  0.736016  1
  Na  Na34  1  0.983519  0.758979  0.236016  1
  Na  Na35  1  0.483519  0.241021  0.263984  1
  Na  Na36  1  0.960824  0.416505  0.331710  1
  Na  Na37  1  0.460824  0.583495  0.168290  1
  Na  Na38  1  0.539176  0.916505  0.668290  1
  Na  Na39  1  0.039176  0.083495  0.831710  1
  Na  Na40  1  0.495798  0.871667  0.345051  1
  Na  Na41  1  0.995798  0.128333  0.154949  1
  Na  Na42  1  0.004202  0.371667  0.654949  1
  Na  Na43  1  0.504202  0.628333  0.845051  1
  P  P44  1  0.990759  0.443011  0.106181  1
  P  P45  1  0.490759  0.556989  0.393819  1
  P  P46  1  0.509241  0.943011  0.893819  1
  P  P47  1  0.009241  0.056989  0.606181  1
  P  P48  1  0.021786  0.436222  0.888582  1
  P  P49  1  0.521786  0.563778  0.611418  1
  P  P50  1  0.478214  0.936222  0.111418  1
  P  P51  1  0.978214  0.063778  0.388582  1
