# generated using pymatgen
data_Co(BW)3
_symmetry_space_group_name_H-M   'P 1'
_cell_length_a   3.18942145
_cell_length_b   4.52948372
_cell_length_c   10.80292994
_cell_angle_alpha   90.00000000
_cell_angle_beta   90.00000000
_cell_angle_gamma   110.61418590
_symmetry_Int_Tables_number   1
_chemical_formula_structural   Co(BW)3
_chemical_formula_sum   'Co2 B6 W6'
_cell_volume   146.07140711
_cell_formula_units_Z   2
loop_
 _symmetry_equiv_pos_site_id
 _symmetry_equiv_pos_as_xyz
  1  'x, y, z'
loop_
 _atom_site_type_symbol
 _atom_site_label
 _atom_site_symmetry_multiplicity
 _atom_site_fract_x
 _atom_site_fract_y
 _atom_site_fract_z
 _atom_site_occupancy
  W  W0  1  0.211524  0.423047  0.893328  1
  W  W1  1  0.788476  0.576953  0.106672  1
  W  W2  1  0.788476  0.576953  0.393328  1
  W  W3  1  0.211524  0.423047  0.606672  1
  W  W4  1  0.497557  0.995114  0.750000  1
  W  W5  1  0.502443  0.004886  0.250000  1
  Co  Co6  1  0.500000  0.000000  0.000000  1
  Co  Co7  1  0.500000  0.000000  0.500000  1
  B  B8  1  0.913955  0.827910  0.897324  1
  B  B9  1  0.086045  0.172090  0.102676  1
  B  B10  1  0.086045  0.172090  0.397324  1
  B  B11  1  0.913955  0.827910  0.602676  1
  B  B12  1  0.790748  0.581495  0.750000  1
  B  B13  1  0.209252  0.418505  0.250000  1
