# generated using pymatgen
data_Br2O
_symmetry_space_group_name_H-M   'P 1'
_cell_length_a   4.26265209
_cell_length_b   7.02652441
_cell_length_c   10.36982517
_cell_angle_alpha   90.00000000
_cell_angle_beta   90.00000000
_cell_angle_gamma   90.00000000
_symmetry_Int_Tables_number   1
_chemical_formula_structural   Br2O
_chemical_formula_sum   'Br8 O4'
_cell_volume   310.59315589
_cell_formula_units_Z   4
loop_
 _symmetry_equiv_pos_site_id
 _symmetry_equiv_pos_as_xyz
  1  'x, y, z'
loop_
 _atom_site_type_symbol
 _atom_site_label
 _atom_site_symmetry_multiplicity
 _atom_site_fract_x
 _atom_site_fract_y
 _atom_site_fract_z
 _atom_site_occupancy
  Br  Br0  1  0.593672  0.999946  0.284633  1
  Br  Br1  1  0.406328  0.499946  0.715367  1
  Br  Br2  1  0.906328  0.999946  0.784633  1
  Br  Br3  1  0.093672  0.499946  0.215366  1
  Br  Br4  1  0.628994  0.323473  0.506387  1
  Br  Br5  1  0.371006  0.823473  0.493613  1
  Br  Br6  1  0.871006  0.323473  0.006387  1
  Br  Br7  1  0.128994  0.823473  0.993613  1
  O  O8  1  0.828887  0.198481  0.356409  1
  O  O9  1  0.171113  0.698481  0.643591  1
  O  O10  1  0.671113  0.198481  0.856409  1
  O  O11  1  0.328887  0.698481  0.143591  1
