# generated using pymatgen
data_H2SeO4
_symmetry_space_group_name_H-M   'P 1'
_cell_length_a   8.92120993
_cell_length_b   8.36868682
_cell_length_c   4.69004137
_cell_angle_alpha   90.00000000
_cell_angle_beta   90.00000000
_cell_angle_gamma   90.00000000
_symmetry_Int_Tables_number   1
_chemical_formula_structural   H2SeO4
_chemical_formula_sum   'H8 Se4 O16'
_cell_volume   350.15291673
_cell_formula_units_Z   4
loop_
 _symmetry_equiv_pos_site_id
 _symmetry_equiv_pos_as_xyz
  1  'x, y, z'
loop_
 _atom_site_type_symbol
 _atom_site_label
 _atom_site_symmetry_multiplicity
 _atom_site_fract_x
 _atom_site_fract_y
 _atom_site_fract_z
 _atom_site_occupancy
  H  H0  1  0.739618  0.717287  0.482509  1
  H  H1  1  0.760382  0.282713  0.982509  1
  H  H2  1  0.239618  0.782713  0.517491  1
  H  H3  1  0.260382  0.217287  0.017491  1
  H  H4  1  0.539086  0.972803  0.925680  1
  H  H5  1  0.960914  0.027197  0.425680  1
  H  H6  1  0.039086  0.527197  0.074320  1
  H  H7  1  0.460914  0.472803  0.574320  1
  Se  Se8  1  0.632493  0.714308  0.930716  1
  Se  Se9  1  0.867507  0.285692  0.430716  1
  Se  Se10  1  0.132493  0.785692  0.069284  1
  Se  Se11  1  0.367507  0.214308  0.569284  1
  O  O12  1  0.488792  0.624668  0.784928  1
  O  O13  1  0.011208  0.375332  0.284928  1
  O  O14  1  0.988792  0.875332  0.215072  1
  O  O15  1  0.511208  0.124668  0.715072  1
  O  O16  1  0.713975  0.624882  0.201668  1
  O  O17  1  0.786025  0.375118  0.701668  1
  O  O18  1  0.213975  0.875118  0.798332  1
  O  O19  1  0.286025  0.124882  0.298332  1
  O  O20  1  0.766226  0.766685  0.678933  1
  O  O21  1  0.733774  0.233315  0.178933  1
  O  O22  1  0.266226  0.733315  0.321067  1
  O  O23  1  0.233774  0.266685  0.821067  1
  O  O24  1  0.579308  0.895969  0.075592  1
  O  O25  1  0.920692  0.104031  0.575592  1
  O  O26  1  0.079308  0.604031  0.924408  1
  O  O27  1  0.420692  0.395969  0.424408  1
