# generated using pymatgen
data_LiH2N
_symmetry_space_group_name_H-M   'P 1'
_cell_length_a   5.06725270
_cell_length_b   5.06725270
_cell_length_c   6.26742193
_cell_angle_alpha   113.84434696
_cell_angle_beta   113.84434705
_cell_angle_gamma   89.99999999
_symmetry_Int_Tables_number   1
_chemical_formula_structural   LiH2N
_chemical_formula_sum   'Li4 H8 N4'
_cell_volume   132.03610650
_cell_formula_units_Z   4
loop_
 _symmetry_equiv_pos_site_id
 _symmetry_equiv_pos_as_xyz
  1  'x, y, z'
loop_
 _atom_site_type_symbol
 _atom_site_label
 _atom_site_symmetry_multiplicity
 _atom_site_fract_x
 _atom_site_fract_y
 _atom_site_fract_z
 _atom_site_occupancy
  H  H0  1  0.729513  0.768127  0.249525  1
  H  H1  1  0.518601  0.270487  0.750475  1
  H  H2  1  0.231873  0.479988  0.750475  1
  H  H3  1  0.520012  0.481399  0.249525  1
  H  H4  1  0.957501  0.072577  0.387806  1
  H  H5  1  0.430306  0.315229  0.387806  1
  H  H6  1  0.927423  0.569694  0.612194  1
  H  H7  1  0.684771  0.042499  0.612194  1
  Li  Li8  1  0.250000  0.750000  0.500000  1
  Li  Li9  1  0.002356  0.502356  0.004712  1
  Li  Li10  1  0.497644  0.997644  0.995288  1
  Li  Li11  1  0.000000  0.000000  0.000000  1
  N  N12  1  0.341814  0.361663  0.230637  1
  N  N13  1  0.131025  0.658186  0.769363  1
  N  N14  1  0.638337  0.111176  0.769363  1
  N  N15  1  0.888824  0.868975  0.230637  1
