# generated using pymatgen
data_SO2
_symmetry_space_group_name_H-M   'P 1'
_cell_length_a   4.43414626
_cell_length_b   4.43414626
_cell_length_c   6.26650151
_cell_angle_alpha   90.00000000
_cell_angle_beta   90.00000000
_cell_angle_gamma   93.03099807
_symmetry_Int_Tables_number   1
_chemical_formula_structural   SO2
_chemical_formula_sum   'S2 O4'
_cell_volume   123.03741736
_cell_formula_units_Z   2
loop_
 _symmetry_equiv_pos_site_id
 _symmetry_equiv_pos_as_xyz
  1  'x, y, z'
loop_
 _atom_site_type_symbol
 _atom_site_label
 _atom_site_symmetry_multiplicity
 _atom_site_fract_x
 _atom_site_fract_y
 _atom_site_fract_z
 _atom_site_occupancy
  O  O0  1  0.765225  0.529559  0.635931  1
  O  O1  1  0.470441  0.234775  0.364069  1
  O  O2  1  0.970441  0.734775  0.135931  1
  O  O3  1  0.265225  0.029559  0.864069  1
  S  S4  1  0.500335  0.499665  0.500000  1
  S  S5  1  1.000335  -0.000335  0.000000  1
