# generated using pymatgen
data_KMnP
_symmetry_space_group_name_H-M   'P 1'
_cell_length_a   3.79671924
_cell_length_b   3.79668417
_cell_length_c   10.36764669
_cell_angle_alpha   90.00039201
_cell_angle_beta   89.99965110
_cell_angle_gamma   90.00037471
_symmetry_Int_Tables_number   1
_chemical_formula_structural   KMnP
_chemical_formula_sum   'K2 Mn2 P2'
_cell_volume   149.44904475
_cell_formula_units_Z   2
loop_
 _symmetry_equiv_pos_site_id
 _symmetry_equiv_pos_as_xyz
  1  'x, y, z'
loop_
 _atom_site_type_symbol
 _atom_site_label
 _atom_site_symmetry_multiplicity
 _atom_site_fract_x
 _atom_site_fract_y
 _atom_site_fract_z
 _atom_site_occupancy
  K  K0  1  0.499998  0.999998  0.305887  1
  K  K1  1  0.999997  0.499994  0.694113  1
  Mn  Mn2  1  0.999995  0.999997  -0.000000  1
  Mn  Mn3  1  0.500004  0.500004  0.000002  1
  P  P4  1  0.000003  0.499996  0.123795  1
  P  P5  1  0.499994  0.000002  0.876204  1
