# generated using pymatgen
data_SrAl2O4
_symmetry_space_group_name_H-M   'P 1'
_cell_length_a   5.19964380
_cell_length_b   5.19964418
_cell_length_c   24.89146879
_cell_angle_alpha   90.00000000
_cell_angle_beta   90.00000000
_cell_angle_gamma   119.99999758
_symmetry_Int_Tables_number   1
_chemical_formula_structural   SrAl2O4
_chemical_formula_sum   'Sr6 Al12 O24'
_cell_volume   582.81186547
_cell_formula_units_Z   6
loop_
 _symmetry_equiv_pos_site_id
 _symmetry_equiv_pos_as_xyz
  1  'x, y, z'
loop_
 _atom_site_type_symbol
 _atom_site_label
 _atom_site_symmetry_multiplicity
 _atom_site_fract_x
 _atom_site_fract_y
 _atom_site_fract_z
 _atom_site_occupancy
  Al  Al0  1  0.349933  0.643880  0.017567  1
  Al  Al1  1  0.349933  0.706053  0.482433  1
  Al  Al2  1  0.356120  0.706053  0.350900  1
  Al  Al3  1  0.293947  0.643880  0.815767  1
  Al  Al4  1  0.293947  0.650067  0.684233  1
  Al  Al5  1  0.356120  0.650067  0.149100  1
  Al  Al6  1  0.706053  0.356120  0.315767  1
  Al  Al7  1  0.643880  0.349933  0.649100  1
  Al  Al8  1  0.650067  0.293947  0.982433  1
  Al  Al9  1  0.643880  0.293947  0.850900  1
  Al  Al10  1  0.706053  0.349933  0.184233  1
  Al  Al11  1  0.650067  0.356120  0.517567  1
  O  O12  1  0.848264  0.424132  0.250000  1
  O  O13  1  0.575868  0.151736  0.916667  1
  O  O14  1  0.575868  0.424132  0.583333  1
  O  O15  1  0.638656  1.009151  0.518139  1
  O  O16  1  0.629505  -0.009151  0.815194  1
  O  O17  1  0.370495  0.361344  0.184806  1
  O  O18  1  0.361344  0.370495  0.481861  1
  O  O19  1  0.341286  0.341286  0.833333  1
  O  O20  1  0.638656  0.629505  0.981861  1
  O  O21  1  0.658714  0.658714  0.333333  1
  O  O22  1  0.629505  0.638656  0.684806  1
  O  O23  1  0.361344  -0.009151  0.018139  1
  O  O24  1  0.370495  1.009151  0.315194  1
  O  O25  1  0.341286  0.000000  0.666667  1
  O  O26  1  0.424132  0.575868  0.083333  1
  O  O27  1  0.424132  0.848264  0.416667  1
  O  O28  1  0.151736  0.575868  0.750000  1
  O  O29  1  0.658714  0.000000  0.166667  1
  O  O30  1  1.009151  0.638656  0.148528  1
  O  O31  1  1.000000  0.658714  0.500000  1
  O  O32  1  -0.009151  0.629505  0.851472  1
  O  O33  1  0.000000  0.341286  0.000000  1
  O  O34  1  1.009151  0.370495  0.351472  1
  O  O35  1  -0.009151  0.361344  0.648528  1
  Sr  Sr36  1  0.996811  0.993622  0.416667  1
  Sr  Sr37  1  0.003189  0.006378  0.916667  1
  Sr  Sr38  1  0.006378  0.003189  0.750000  1
  Sr  Sr39  1  0.996811  0.003189  0.083333  1
  Sr  Sr40  1  0.993622  0.996811  0.250000  1
  Sr  Sr41  1  0.003189  0.996811  0.583333  1
