# generated using pymatgen
data_YAlSi
_symmetry_space_group_name_H-M   'P 1'
_cell_length_a   4.01354074
_cell_length_b   5.53869222
_cell_length_c   5.71513551
_cell_angle_alpha   90.00000000
_cell_angle_beta   90.00000000
_cell_angle_gamma   111.24264830
_symmetry_Int_Tables_number   1
_chemical_formula_structural   YAlSi
_chemical_formula_sum   'Y2 Al2 Si2'
_cell_volume   118.41390027
_cell_formula_units_Z   2
loop_
 _symmetry_equiv_pos_site_id
 _symmetry_equiv_pos_as_xyz
  1  'x, y, z'
loop_
 _atom_site_type_symbol
 _atom_site_label
 _atom_site_symmetry_multiplicity
 _atom_site_fract_x
 _atom_site_fract_y
 _atom_site_fract_z
 _atom_site_occupancy
  Al  Al0  1  0.000000  0.000000  0.500000  1
  Al  Al1  1  0.000000  0.000000  0.000000  1
  Si  Si2  1  0.599262  0.198524  0.750000  1
  Si  Si3  1  0.400738  0.801476  0.250000  1
  Y  Y4  1  0.694431  0.388863  0.250000  1
  Y  Y5  1  0.305569  0.611137  0.750000  1
