# generated using pymatgen
data_CoAs3
_symmetry_space_group_name_H-M   'P 1'
_cell_length_a   7.17108937
_cell_length_b   7.17108950
_cell_length_c   7.17108942
_cell_angle_alpha   109.47121779
_cell_angle_beta   109.47121815
_cell_angle_gamma   109.47121897
_symmetry_Int_Tables_number   1
_chemical_formula_structural   CoAs3
_chemical_formula_sum   'Co4 As12'
_cell_volume   283.87919326
_cell_formula_units_Z   4
loop_
 _symmetry_equiv_pos_site_id
 _symmetry_equiv_pos_as_xyz
  1  'x, y, z'
loop_
 _atom_site_type_symbol
 _atom_site_label
 _atom_site_symmetry_multiplicity
 _atom_site_fract_x
 _atom_site_fract_y
 _atom_site_fract_z
 _atom_site_occupancy
  Co  Co0  1  0.500000  0.000000  0.000000  1
  Co  Co1  1  0.000000  0.000000  0.500000  1
  Co  Co2  1  0.000000  0.500000  0.000000  1
  Co  Co3  1  0.500000  0.500000  0.500000  1
  As  As4  1  0.847941  0.506680  0.658739  1
  As  As5  1  0.189201  0.341261  0.847941  1
  As  As6  1  0.506680  0.658739  0.847941  1
  As  As7  1  0.658739  0.847941  0.506680  1
  As  As8  1  0.152059  0.810799  0.658739  1
  As  As9  1  0.341261  0.152059  0.493320  1
  As  As10  1  0.810799  0.658739  0.152059  1
  As  As11  1  0.847941  0.189201  0.341261  1
  As  As12  1  0.152059  0.493320  0.341261  1
  As  As13  1  0.493320  0.341261  0.152059  1
  As  As14  1  0.658739  0.152059  0.810799  1
  As  As15  1  0.341261  0.847941  0.189201  1
