# generated using pymatgen
data_TiNi
_symmetry_space_group_name_H-M   'P 1'
_cell_length_a   7.25703395
_cell_length_b   7.25703395
_cell_length_c   5.34727390
_cell_angle_alpha   90.00000000
_cell_angle_beta   90.00000000
_cell_angle_gamma   119.99999996
_symmetry_Int_Tables_number   1
_chemical_formula_structural   TiNi
_chemical_formula_sum   'Ti9 Ni9'
_cell_volume   243.88291174
_cell_formula_units_Z   9
loop_
 _symmetry_equiv_pos_site_id
 _symmetry_equiv_pos_as_xyz
  1  'x, y, z'
loop_
 _atom_site_type_symbol
 _atom_site_label
 _atom_site_symmetry_multiplicity
 _atom_site_fract_x
 _atom_site_fract_y
 _atom_site_fract_z
 _atom_site_occupancy
  Ti  Ti0  1  0.000000  0.000000  0.979159  1
  Ti  Ti1  1  0.333333  0.666667  0.064226  1
  Ti  Ti2  1  0.666667  0.333333  0.979079  1
  Ti  Ti3  1  0.333361  0.986506  0.363618  1
  Ti  Ti4  1  0.013494  0.346855  0.363618  1
  Ti  Ti5  1  0.653145  0.666639  0.363618  1
  Ti  Ti6  1  0.675520  0.008804  0.667627  1
  Ti  Ti7  1  0.991196  0.666715  0.667627  1
  Ti  Ti8  1  0.333285  0.324480  0.667627  1
  Ni  Ni9  1  0.000000  0.000000  0.442278  1
  Ni  Ni10  1  0.333333  0.666667  0.608480  1
  Ni  Ni11  1  0.666667  0.333333  0.442277  1
  Ni  Ni12  1  0.333364  0.979310  0.882859  1
  Ni  Ni13  1  0.020690  0.354055  0.882859  1
  Ni  Ni14  1  0.645945  0.666636  0.882859  1
  Ni  Ni15  1  0.691399  0.024742  0.160496  1
  Ni  Ni16  1  0.975258  0.666657  0.160496  1
  Ni  Ni17  1  0.333343  0.308601  0.160496  1
