# generated using pymatgen
data_AgNO3
_symmetry_space_group_name_H-M   'P 1'
_cell_length_a   6.48133183
_cell_length_b   6.48133924
_cell_length_c   6.48129528
_cell_angle_alpha   47.67122269
_cell_angle_beta   47.67091066
_cell_angle_gamma   47.67141757
_symmetry_Int_Tables_number   1
_chemical_formula_structural   AgNO3
_chemical_formula_sum   'Ag2 N2 O6'
_cell_volume   136.22689997
_cell_formula_units_Z   2
loop_
 _symmetry_equiv_pos_site_id
 _symmetry_equiv_pos_as_xyz
  1  'x, y, z'
loop_
 _atom_site_type_symbol
 _atom_site_label
 _atom_site_symmetry_multiplicity
 _atom_site_fract_x
 _atom_site_fract_y
 _atom_site_fract_z
 _atom_site_occupancy
  O  O0  1  0.663214  0.988608  0.513598  1
  O  O1  1  0.488621  0.163213  0.013587  1
  N  N2  1  0.222340  0.222402  0.222373  1
  O  O3  1  0.513605  0.663208  0.988608  1
  O  O4  1  0.988603  0.513606  0.663212  1
  Ag  Ag5  1  -0.000890  -0.000895  -0.000894  1
  N  N6  1  0.722375  0.722360  0.722380  1
  O  O7  1  0.163204  0.013604  0.488613  1
  Ag  Ag8  1  0.499110  0.499107  0.499105  1
  O  O9  1  0.013618  0.488587  0.163216  1
