# generated using pymatgen
data_Li7VP4
_symmetry_space_group_name_H-M   'P 1'
_cell_length_a   38.20314506
_cell_length_b   29.41373222
_cell_length_c   15.22542886
_cell_angle_alpha   29.25784159
_cell_angle_beta   75.65745801
_cell_angle_gamma   46.42837889
_symmetry_Int_Tables_number   1
_chemical_formula_structural   Li7VP4
_chemical_formula_sum   'Li14 V2 P8'
_cell_volume   317.42197736
_cell_formula_units_Z   2
loop_
 _symmetry_equiv_pos_site_id
 _symmetry_equiv_pos_as_xyz
  1  'x, y, z'
loop_
 _atom_site_type_symbol
 _atom_site_label
 _atom_site_symmetry_multiplicity
 _atom_site_fract_x
 _atom_site_fract_y
 _atom_site_fract_z
 _atom_site_occupancy
  Li  Li0  1  -0.345966  0.108573  -0.303565  1
  Li  Li1  1  0.141492  0.439889  -0.412051  1
  Li  Li2  1  0.203746  -0.427118  0.184851  1
  Li  Li3  1  -0.089787  -0.137860  0.241404  1
  Li  Li4  1  0.769715  -0.412130  -0.040413  1
  Li  Li5  1  0.515171  -0.296279  0.159750  1
  Li  Li6  1  0.077953  0.565496  -0.213018  1
  Li  Li7  1  0.479025  -0.025669  0.428570  1
  Li  Li8  1  0.948116  -0.266153  0.696168  1
  Li  Li9  1  0.220596  -0.503196  0.819913  1
  Li  Li10  1  0.053598  -0.251585  -0.018304  1
  Li  Li11  1  -0.275437  -0.596025  0.066877  1
  Li  Li12  1  0.128086  0.087104  -0.117557  1
  Li  Li13  1  0.446658  -0.158076  0.148447  1
  V  V14  1  -0.674903  0.977501  -0.198001  1
  V  V15  1  0.420923  0.407570  -0.984653  1
  P  P16  1  0.173634  -0.397512  -0.483090  1
  P  P17  1  0.098533  0.080029  0.040642  1
  P  P18  1  0.020229  0.263266  -0.983762  1
  P  P19  1  0.488571  -0.004342  -0.013257  1
  P  P20  1  0.636238  -0.133809  -0.051863  1
  P  P21  1  0.595670  -0.041374  0.005804  1
  P  P22  1  0.149817  -0.576891  0.332186  1
  P  P23  1  0.478188  -0.104169  0.299729  1
