# generated using pymatgen
data_CaAl2(SiO4)2
_symmetry_space_group_name_H-M   'P 1'
_cell_length_a   8.86682129
_cell_length_b   9.54417485
_cell_length_c   8.19167149
_cell_angle_alpha   82.06897295
_cell_angle_beta   85.01883346
_cell_angle_gamma   89.74461999
_symmetry_Int_Tables_number   1
_chemical_formula_structural   CaAl2(SiO4)2
_chemical_formula_sum   'Ca4 Al8 Si8 O32'
_cell_volume   683.98860534
_cell_formula_units_Z   4
loop_
 _symmetry_equiv_pos_site_id
 _symmetry_equiv_pos_as_xyz
  1  'x, y, z'
loop_
 _atom_site_type_symbol
 _atom_site_label
 _atom_site_symmetry_multiplicity
 _atom_site_fract_x
 _atom_site_fract_y
 _atom_site_fract_z
 _atom_site_occupancy
  Ca  Ca0  1  0.075512  0.003378  0.227818  1
  Ca  Ca1  1  0.417932  0.426963  0.310838  1
  Ca  Ca2  1  0.582068  0.573037  0.689162  1
  Ca  Ca3  1  0.924488  0.996622  0.772182  1
  Al  Al4  1  0.440846  0.188446  0.001836  1
  Al  Al5  1  0.067592  0.689832  0.121412  1
  Al  Al6  1  0.772977  0.453441  0.386502  1
  Al  Al7  1  0.278416  0.056977  0.520879  1
  Al  Al8  1  0.721584  0.943023  0.479121  1
  Al  Al9  1  0.227023  0.546559  0.613498  1
  Al  Al10  1  0.932408  0.310168  0.878588  1
  Al  Al11  1  0.559154  0.811554  0.998164  1
  Si  Si12  1  0.738697  0.054802  0.097445  1
  Si  Si13  1  0.755292  0.546647  0.021752  1
  Si  Si14  1  0.054608  0.294361  0.497059  1
  Si  Si15  1  0.429036  0.794755  0.392953  1
  Si  Si16  1  0.570964  0.205245  0.607047  1
  Si  Si17  1  0.945392  0.705639  0.502941  1
  Si  Si18  1  0.244708  0.453353  0.978248  1
  Si  Si19  1  0.261303  0.945198  0.902555  1
  O  O20  1  0.286612  0.065717  0.024921  1
  O  O21  1  0.889756  0.141430  0.000277  1
  O  O22  1  0.366216  0.344339  0.070937  1
  O  O23  1  0.586341  0.142892  0.129746  1
  O  O24  1  0.218571  0.569715  0.107825  1
  O  O25  1  0.904504  0.627852  0.055316  1
  O  O26  1  0.674058  0.478441  0.205353  1
  O  O27  1  0.488018  0.786815  0.203692  1
  O  O28  1  0.034423  0.748016  0.318330  1
  O  O29  1  0.122817  0.148573  0.428814  1
  O  O30  1  0.942480  0.365803  0.363808  1
  O  O31  1  0.801224  0.987673  0.273980  1
  O  O32  1  0.436098  0.169760  0.492772  1
  O  O33  1  0.293130  0.911590  0.408829  1
  O  O34  1  0.201249  0.397044  0.510479  1
  O  O35  1  0.377896  0.629973  0.474658  1
  O  O36  1  0.622104  0.370027  0.525342  1
  O  O37  1  0.798751  0.602956  0.489521  1
  O  O38  1  0.706870  0.088411  0.591171  1
  O  O39  1  0.563902  0.830240  0.507228  1
  O  O40  1  0.198776  0.012327  0.726020  1
  O  O41  1  0.057520  0.634197  0.636192  1
  O  O42  1  0.877183  0.851427  0.571186  1
  O  O43  1  0.965577  0.251984  0.681670  1
  O  O44  1  0.511982  0.213186  0.796308  1
  O  O45  1  0.325942  0.521559  0.794647  1
  O  O46  1  0.095496  0.372148  0.944684  1
  O  O47  1  0.781429  0.430285  0.892175  1
  O  O48  1  0.413659  0.857108  0.870254  1
  O  O49  1  0.633784  0.655661  0.929063  1
  O  O50  1  0.110244  0.858570  0.999723  1
  O  O51  1  0.713388  0.934283  0.975079  1
