# generated using pymatgen
data_TlSbF6
_symmetry_space_group_name_H-M   'P 1'
_cell_length_a   5.30068383
_cell_length_b   5.30068407
_cell_length_c   5.30068352
_cell_angle_alpha   96.71379411
_cell_angle_beta   96.71379437
_cell_angle_gamma   96.71379186
_symmetry_Int_Tables_number   1
_chemical_formula_structural   TlSbF6
_chemical_formula_sum   'Tl1 Sb1 F6'
_cell_volume   145.60601342
_cell_formula_units_Z   1
loop_
 _symmetry_equiv_pos_site_id
 _symmetry_equiv_pos_as_xyz
  1  'x, y, z'
loop_
 _atom_site_type_symbol
 _atom_site_label
 _atom_site_symmetry_multiplicity
 _atom_site_fract_x
 _atom_site_fract_y
 _atom_site_fract_z
 _atom_site_occupancy
  Tl  Tl0  1  0.000000  0.000000  0.000000  1
  Sb  Sb1  1  0.500000  0.500000  0.500000  1
  F  F2  1  0.245537  0.584996  0.245537  1
  F  F3  1  0.584996  0.245537  0.245537  1
  F  F4  1  0.754463  0.415004  0.754463  1
  F  F5  1  0.415004  0.754463  0.754463  1
  F  F6  1  0.245537  0.245537  0.584996  1
  F  F7  1  0.754463  0.754463  0.415004  1
