# generated using pymatgen
data_Ir3Se8
_symmetry_space_group_name_H-M   'P 1'
_cell_length_a   6.06125492
_cell_length_b   6.06125492
_cell_length_c   6.06125491
_cell_angle_alpha   90.48825305
_cell_angle_beta   90.48825309
_cell_angle_gamma   90.48825307
_symmetry_Int_Tables_number   1
_chemical_formula_structural   Ir3Se8
_chemical_formula_sum   'Ir3 Se8'
_cell_volume   222.65890494
_cell_formula_units_Z   1
loop_
 _symmetry_equiv_pos_site_id
 _symmetry_equiv_pos_as_xyz
  1  'x, y, z'
loop_
 _atom_site_type_symbol
 _atom_site_label
 _atom_site_symmetry_multiplicity
 _atom_site_fract_x
 _atom_site_fract_y
 _atom_site_fract_z
 _atom_site_occupancy
  Se  Se0  1  0.382192  0.116020  0.878670  1
  Se  Se1  1  0.116020  0.878670  0.382192  1
  Se  Se2  1  0.878670  0.382192  0.116020  1
  Se  Se3  1  0.374762  0.374762  0.374762  1
  Se  Se4  1  0.625238  0.625238  0.625238  1
  Se  Se5  1  0.121330  0.617808  0.883980  1
  Se  Se6  1  0.883980  0.121330  0.617808  1
  Se  Se7  1  0.617808  0.883980  0.121330  1
  Ir  Ir8  1  0.500000  0.000000  0.500000  1
  Ir  Ir9  1  0.000000  0.500000  0.500000  1
  Ir  Ir10  1  0.500000  0.500000  0.000000  1
