# generated using pymatgen
data_Zn(AgO2)2
_symmetry_space_group_name_H-M   'P 1'
_cell_length_a   5.88546243
_cell_length_b   5.88546292
_cell_length_c   7.05664705
_cell_angle_alpha   114.64630724
_cell_angle_beta   114.64631286
_cell_angle_gamma   89.99999392
_symmetry_Int_Tables_number   1
_chemical_formula_structural   Zn(AgO2)2
_chemical_formula_sum   'Zn2 Ag4 O8'
_cell_volume   197.40070984
_cell_formula_units_Z   2
loop_
 _symmetry_equiv_pos_site_id
 _symmetry_equiv_pos_as_xyz
  1  'x, y, z'
loop_
 _atom_site_type_symbol
 _atom_site_label
 _atom_site_symmetry_multiplicity
 _atom_site_fract_x
 _atom_site_fract_y
 _atom_site_fract_z
 _atom_site_occupancy
  Zn  Zn0  1  0.375000  0.625000  0.750000  1
  Zn  Zn1  1  0.625000  0.375000  0.250000  1
  Ag  Ag2  1  0.000000  0.000000  0.500000  1
  Ag  Ag3  1  0.000000  0.500000  -0.000000  1
  Ag  Ag4  1  0.500000  0.000000  0.500000  1
  Ag  Ag5  1  0.000000  0.000000  -0.000000  1
  O  O6  1  0.737392  0.747344  0.474784  1
  O  O7  1  0.772561  0.262608  0.025216  1
  O  O8  1  0.252656  0.262608  0.025216  1
  O  O9  1  0.262608  0.252656  0.525216  1
  O  O10  1  0.262608  0.772561  0.525216  1
  O  O11  1  0.227439  0.737392  0.974784  1
  O  O12  1  0.737392  0.227439  0.474784  1
  O  O13  1  0.747344  0.737392  0.974784  1
