# generated using pymatgen
data_Mg2Au
_symmetry_space_group_name_H-M   'P 1'
_cell_length_a   8.47216108
_cell_length_b   13.70053115
_cell_length_c   18.06452736
_cell_angle_alpha   90.00000000
_cell_angle_beta   90.00000000
_cell_angle_gamma   90.00000000
_symmetry_Int_Tables_number   1
_chemical_formula_structural   Mg2Au
_chemical_formula_sum   'Mg72 Au36'
_cell_volume   2096.80581327
_cell_formula_units_Z   36
loop_
 _symmetry_equiv_pos_site_id
 _symmetry_equiv_pos_as_xyz
  1  'x, y, z'
loop_
 _atom_site_type_symbol
 _atom_site_label
 _atom_site_symmetry_multiplicity
 _atom_site_fract_x
 _atom_site_fract_y
 _atom_site_fract_z
 _atom_site_occupancy
  Mg  Mg0  1  0.289459  0.580949  0.345739  1
  Mg  Mg1  1  0.063739  0.083581  0.941491  1
  Mg  Mg2  1  0.437172  0.750000  0.110332  1
  Mg  Mg3  1  0.064391  0.750000  0.937330  1
  Mg  Mg4  1  0.212411  0.250000  0.178402  1
  Mg  Mg5  1  0.063805  0.083957  0.271086  1
  Mg  Mg6  1  0.295523  0.914875  0.012163  1
  Mg  Mg7  1  0.210541  0.580949  0.845739  1
  Mg  Mg8  1  0.937172  0.250000  0.389668  1
  Mg  Mg9  1  0.562828  0.250000  0.889668  1
  Mg  Mg10  1  0.204255  0.250000  0.845768  1
  Mg  Mg11  1  0.434600  0.750000  0.772459  1
  Mg  Mg12  1  0.704255  0.750000  0.654232  1
  Mg  Mg13  1  0.563739  0.916419  0.558509  1
  Mg  Mg14  1  0.210541  0.919051  0.845739  1
  Mg  Mg15  1  0.789459  0.080949  0.154261  1
  Mg  Mg16  1  0.936195  0.916043  0.728914  1
  Mg  Mg17  1  0.436261  0.416419  0.441491  1
  Mg  Mg18  1  0.565400  0.250000  0.227541  1
  Mg  Mg19  1  0.207105  0.916004  0.178420  1
  Mg  Mg20  1  0.062828  0.750000  0.610332  1
  Mg  Mg21  1  0.795395  0.750000  0.488686  1
  Mg  Mg22  1  0.436195  0.416043  0.771086  1
  Mg  Mg23  1  0.934600  0.250000  0.727541  1
  Mg  Mg24  1  0.564391  0.250000  0.562670  1
  Mg  Mg25  1  0.710541  0.080949  0.654261  1
  Mg  Mg26  1  0.292895  0.583996  0.678420  1
  Mg  Mg27  1  0.935609  0.250000  0.062670  1
  Mg  Mg28  1  0.934476  0.917419  0.393510  1
  Mg  Mg29  1  0.292895  0.916004  0.678420  1
  Mg  Mg30  1  0.792895  0.416004  0.821580  1
  Mg  Mg31  1  0.434476  0.082581  0.106490  1
  Mg  Mg32  1  0.065524  0.082581  0.606490  1
  Mg  Mg33  1  0.707105  0.083996  0.321580  1
  Mg  Mg34  1  0.065400  0.750000  0.272459  1
  Mg  Mg35  1  0.295745  0.250000  0.345768  1
  Mg  Mg36  1  0.289459  0.919051  0.345739  1
  Mg  Mg37  1  0.789459  0.419051  0.154261  1
  Mg  Mg38  1  0.065524  0.417419  0.606490  1
  Mg  Mg39  1  0.792895  0.083996  0.821580  1
  Mg  Mg40  1  0.934476  0.582581  0.393510  1
  Mg  Mg41  1  0.707105  0.416004  0.321580  1
  Mg  Mg42  1  0.295523  0.585125  0.012163  1
  Mg  Mg43  1  0.704605  0.750000  0.988686  1
  Mg  Mg44  1  0.936261  0.916419  0.058509  1
  Mg  Mg45  1  0.710541  0.419051  0.654261  1
  Mg  Mg46  1  0.936261  0.583581  0.058509  1
  Mg  Mg47  1  0.207105  0.583996  0.178420  1
  Mg  Mg48  1  0.436195  0.083957  0.771086  1
  Mg  Mg49  1  0.063805  0.416043  0.271086  1
  Mg  Mg50  1  0.563805  0.583957  0.228914  1
  Mg  Mg51  1  0.795523  0.414875  0.487837  1
  Mg  Mg52  1  0.565524  0.917419  0.893510  1
  Mg  Mg53  1  0.287589  0.250000  0.678402  1
  Mg  Mg54  1  0.434476  0.417419  0.106490  1
  Mg  Mg55  1  0.795745  0.750000  0.154232  1
  Mg  Mg56  1  0.787589  0.750000  0.821598  1
  Mg  Mg57  1  0.563805  0.916043  0.228914  1
  Mg  Mg58  1  0.204477  0.914875  0.512163  1
  Mg  Mg59  1  0.204605  0.250000  0.511314  1
  Mg  Mg60  1  0.204477  0.585125  0.512163  1
  Mg  Mg61  1  0.565524  0.582581  0.893510  1
  Mg  Mg62  1  0.295395  0.250000  0.011314  1
  Mg  Mg63  1  0.704477  0.085125  0.987837  1
  Mg  Mg64  1  0.704477  0.414875  0.987837  1
  Mg  Mg65  1  0.795523  0.085125  0.487837  1
  Mg  Mg66  1  0.936195  0.583957  0.728914  1
  Mg  Mg67  1  0.712411  0.750000  0.321598  1
  Mg  Mg68  1  0.563739  0.583581  0.558509  1
  Mg  Mg69  1  0.063739  0.416419  0.941491  1
  Mg  Mg70  1  0.436261  0.083581  0.441491  1
  Mg  Mg71  1  0.435609  0.750000  0.437330  1
  Au  Au72  1  0.388281  0.416665  0.924368  1
  Au  Au73  1  0.388281  0.083335  0.924368  1
  Au  Au74  1  0.610419  0.250000  0.737072  1
  Au  Au75  1  0.609492  0.250000  0.075451  1
  Au  Au76  1  0.611719  0.583335  0.075632  1
  Au  Au77  1  0.889792  0.582853  0.906263  1
  Au  Au78  1  0.110529  0.083741  0.759201  1
  Au  Au79  1  0.611719  0.916665  0.075632  1
  Au  Au80  1  0.389792  0.417147  0.593737  1
  Au  Au81  1  0.610529  0.916259  0.740799  1
  Au  Au82  1  0.889471  0.916259  0.240799  1
  Au  Au83  1  0.610208  0.582853  0.406263  1
  Au  Au84  1  0.886807  0.250000  0.909425  1
  Au  Au85  1  0.110419  0.750000  0.762928  1
  Au  Au86  1  0.889471  0.583741  0.240799  1
  Au  Au87  1  0.889792  0.917147  0.906263  1
  Au  Au88  1  0.890508  0.250000  0.575451  1
  Au  Au89  1  0.610529  0.583741  0.740799  1
  Au  Au90  1  0.888281  0.583335  0.575632  1
  Au  Au91  1  0.390508  0.750000  0.924549  1
  Au  Au92  1  0.109492  0.750000  0.424549  1
  Au  Au93  1  0.110529  0.416259  0.759201  1
  Au  Au94  1  0.111719  0.416665  0.424368  1
  Au  Au95  1  0.610208  0.917147  0.406263  1
  Au  Au96  1  0.113193  0.750000  0.090575  1
  Au  Au97  1  0.111719  0.083335  0.424368  1
  Au  Au98  1  0.389471  0.083741  0.259201  1
  Au  Au99  1  0.613193  0.250000  0.409425  1
  Au  Au100  1  0.389471  0.416259  0.259201  1
  Au  Au101  1  0.888281  0.916665  0.575632  1
  Au  Au102  1  0.110208  0.417147  0.093737  1
  Au  Au103  1  0.110208  0.082853  0.093737  1
  Au  Au104  1  0.386807  0.750000  0.590575  1
  Au  Au105  1  0.389581  0.750000  0.262928  1
  Au  Au106  1  0.889581  0.250000  0.237072  1
  Au  Au107  1  0.389792  0.082853  0.593737  1
