# generated using pymatgen
data_BaCN2
_symmetry_space_group_name_H-M   'P 1'
_cell_length_a   5.72180045
_cell_length_b   5.72180014
_cell_length_c   5.72180016
_cell_angle_alpha   44.42109760
_cell_angle_beta   44.42110014
_cell_angle_gamma   44.42110144
_symmetry_Int_Tables_number   1
_chemical_formula_structural   BaCN2
_chemical_formula_sum   'Ba1 C1 N2'
_cell_volume   83.42579184
_cell_formula_units_Z   1
loop_
 _symmetry_equiv_pos_site_id
 _symmetry_equiv_pos_as_xyz
  1  'x, y, z'
loop_
 _atom_site_type_symbol
 _atom_site_label
 _atom_site_symmetry_multiplicity
 _atom_site_fract_x
 _atom_site_fract_y
 _atom_site_fract_z
 _atom_site_occupancy
  Ba  Ba0  1  -0.000000  -0.000000  0.000000  1
  C  C1  1  0.500000  0.500000  0.500000  1
  N  N2  1  0.580252  0.580252  0.580252  1
  N  N3  1  0.419748  0.419748  0.419748  1
