# generated using pymatgen
data_Ni3(PbSe)2
_symmetry_space_group_name_H-M   'P 1'
_cell_length_a   5.82321066
_cell_length_b   5.82321065
_cell_length_c   5.82321065
_cell_angle_alpha   58.54194901
_cell_angle_beta   58.54194910
_cell_angle_gamma   58.54194896
_symmetry_Int_Tables_number   1
_chemical_formula_structural   Ni3(PbSe)2
_chemical_formula_sum   'Ni3 Pb2 Se2'
_cell_volume   134.97191847
_cell_formula_units_Z   1
loop_
 _symmetry_equiv_pos_site_id
 _symmetry_equiv_pos_as_xyz
  1  'x, y, z'
loop_
 _atom_site_type_symbol
 _atom_site_label
 _atom_site_symmetry_multiplicity
 _atom_site_fract_x
 _atom_site_fract_y
 _atom_site_fract_z
 _atom_site_occupancy
  Ni  Ni0  1  0.500000  0.500000  0.000000  1
  Ni  Ni1  1  0.000000  0.500000  0.500000  1
  Ni  Ni2  1  0.500000  0.000000  0.500000  1
  Se  Se3  1  0.778971  0.778971  0.778971  1
  Se  Se4  1  0.221029  0.221029  0.221029  1
  Pb  Pb5  1  0.500000  0.500000  0.500000  1
  Pb  Pb6  1  0.000000  0.000000  0.000000  1
