# generated using pymatgen
data_LiFePO4
_symmetry_space_group_name_H-M   'P 1'
_cell_length_a   10.45298766
_cell_length_b   6.08649492
_cell_length_c   4.75343700
_cell_angle_alpha   90.00000000
_cell_angle_beta   90.00000000
_cell_angle_gamma   90.00000000
_symmetry_Int_Tables_number   1
_chemical_formula_structural   LiFePO4
_chemical_formula_sum   'Li4 Fe4 P4 O16'
_cell_volume   302.42343639
_cell_formula_units_Z   4
loop_
 _symmetry_equiv_pos_site_id
 _symmetry_equiv_pos_as_xyz
  1  'x, y, z'
loop_
 _atom_site_type_symbol
 _atom_site_label
 _atom_site_symmetry_multiplicity
 _atom_site_fract_x
 _atom_site_fract_y
 _atom_site_fract_z
 _atom_site_occupancy
  Li  Li0  1  0.000000  0.000000  0.000000  1
  Li  Li1  1  0.500000  0.500000  0.500000  1
  Li  Li2  1  0.500000  0.000000  0.500000  1
  Li  Li3  1  0.000000  0.500000  0.000000  1
  O  O4  1  0.403480  0.750000  0.242321  1
  O  O5  1  0.834311  0.547093  0.713856  1
  O  O6  1  0.834311  0.952907  0.713856  1
  O  O7  1  0.903480  0.750000  0.257679  1
  O  O8  1  0.042711  0.750000  0.706587  1
  O  O9  1  0.096520  0.250000  0.742321  1
  O  O10  1  0.165689  0.047093  0.286144  1
  O  O11  1  0.665689  0.452907  0.213856  1
  O  O12  1  0.334311  0.547093  0.786144  1
  O  O13  1  0.334311  0.952907  0.786144  1
  O  O14  1  0.165689  0.452907  0.286144  1
  O  O15  1  0.457289  0.250000  0.206587  1
  O  O16  1  0.542711  0.750000  0.793413  1
  O  O17  1  0.596520  0.250000  0.757679  1
  O  O18  1  0.665689  0.047093  0.213856  1
  O  O19  1  0.957289  0.250000  0.293413  1
  P  P20  1  0.094668  0.250000  0.418844  1
  P  P21  1  0.405332  0.750000  0.918844  1
  P  P22  1  0.594668  0.250000  0.081156  1
  P  P23  1  0.905332  0.750000  0.581156  1
  Fe  Fe24  1  0.781494  0.250000  0.523966  1
  Fe  Fe25  1  0.718506  0.750000  0.023966  1
  Fe  Fe26  1  0.281494  0.250000  0.976034  1
  Fe  Fe27  1  0.218506  0.750000  0.476034  1
