# generated using pymatgen
data_Hf3(Cu2Si)2
_symmetry_space_group_name_H-M   'P 1'
_cell_length_a   6.30823177
_cell_length_b   6.30823178
_cell_length_c   3.97539537
_cell_angle_alpha   90.00000000
_cell_angle_beta   90.00000000
_cell_angle_gamma   120.00000002
_symmetry_Int_Tables_number   1
_chemical_formula_structural   Hf3(Cu2Si)2
_chemical_formula_sum   'Hf3 Si2 Cu4'
_cell_volume   137.00179024
_cell_formula_units_Z   1
loop_
 _symmetry_equiv_pos_site_id
 _symmetry_equiv_pos_as_xyz
  1  'x, y, z'
loop_
 _atom_site_type_symbol
 _atom_site_label
 _atom_site_symmetry_multiplicity
 _atom_site_fract_x
 _atom_site_fract_y
 _atom_site_fract_z
 _atom_site_occupancy
  Si  Si0  1  0.666667  0.333333  0.000000  1
  Si  Si1  1  0.333333  0.666667  0.000000  1
  Cu  Cu2  1  0.247711  0.000000  0.000000  1
  Cu  Cu3  1  0.000000  0.247711  0.000000  1
  Cu  Cu4  1  0.000000  0.000000  0.500000  1
  Cu  Cu5  1  0.752289  0.752289  0.000000  1
  Hf  Hf6  1  0.000000  0.585988  0.500000  1
  Hf  Hf7  1  0.414012  0.414012  0.500000  1
  Hf  Hf8  1  0.585988  0.000000  0.500000  1
