# generated using pymatgen
data_SrMgF4
_symmetry_space_group_name_H-M   'P 1'
_cell_length_a   4.07702115
_cell_length_b   5.60093140
_cell_length_c   7.78532846
_cell_angle_alpha   90.00000000
_cell_angle_beta   105.17927063
_cell_angle_gamma   90.00000000
_symmetry_Int_Tables_number   1
_chemical_formula_structural   SrMgF4
_chemical_formula_sum   'Sr2 Mg2 F8'
_cell_volume   171.57640117
_cell_formula_units_Z   2
loop_
 _symmetry_equiv_pos_site_id
 _symmetry_equiv_pos_as_xyz
  1  'x, y, z'
loop_
 _atom_site_type_symbol
 _atom_site_label
 _atom_site_symmetry_multiplicity
 _atom_site_fract_x
 _atom_site_fract_y
 _atom_site_fract_z
 _atom_site_occupancy
  F  F0  1  0.000000  0.000000  0.000000  1
  F  F1  1  0.000000  0.500000  0.000000  1
  F  F2  1  0.186013  0.498012  0.372025  1
  F  F3  1  0.813987  0.501988  0.627975  1
  F  F4  1  0.398887  0.750000  0.797774  1
  F  F5  1  0.601113  0.250000  0.202226  1
  F  F6  1  0.186013  0.001988  0.372025  1
  F  F7  1  0.813987  0.998012  0.627975  1
  Mg  Mg8  1  0.088407  0.250000  0.176815  1
  Mg  Mg9  1  0.911593  0.750000  0.823185  1
  Sr  Sr10  1  0.669004  0.750000  0.338008  1
  Sr  Sr11  1  0.330996  0.250000  0.661992  1
