# generated using pymatgen
data_VAs
_symmetry_space_group_name_H-M   'P 1'
_cell_length_a   3.34041566
_cell_length_b   5.86925258
_cell_length_c   6.27956604
_cell_angle_alpha   90.00000000
_cell_angle_beta   90.00000000
_cell_angle_gamma   90.00000000
_symmetry_Int_Tables_number   1
_chemical_formula_structural   VAs
_chemical_formula_sum   'V4 As4'
_cell_volume   123.11555938
_cell_formula_units_Z   4
loop_
 _symmetry_equiv_pos_site_id
 _symmetry_equiv_pos_as_xyz
  1  'x, y, z'
loop_
 _atom_site_type_symbol
 _atom_site_label
 _atom_site_symmetry_multiplicity
 _atom_site_fract_x
 _atom_site_fract_y
 _atom_site_fract_z
 _atom_site_occupancy
  V  V0  1  0.250000  0.495140  0.316075  1
  V  V1  1  0.750000  0.504860  0.683925  1
  V  V2  1  0.250000  0.995140  0.183925  1
  V  V3  1  0.750000  0.004860  0.816075  1
  As  As4  1  0.250000  0.305495  0.926638  1
  As  As5  1  0.750000  0.694505  0.073362  1
  As  As6  1  0.250000  0.805495  0.573362  1
  As  As7  1  0.750000  0.194505  0.426638  1
