# generated using pymatgen
data_SrN2
_symmetry_space_group_name_H-M   'P 1'
_cell_length_a   3.85275362
_cell_length_b   3.85275362
_cell_length_c   4.16454924
_cell_angle_alpha   117.55277900
_cell_angle_beta   117.55277889
_cell_angle_gamma   90.00000000
_symmetry_Int_Tables_number   1
_chemical_formula_structural   SrN2
_chemical_formula_sum   'Sr1 N2'
_cell_volume   46.75560308
_cell_formula_units_Z   1
loop_
 _symmetry_equiv_pos_site_id
 _symmetry_equiv_pos_as_xyz
  1  'x, y, z'
loop_
 _atom_site_type_symbol
 _atom_site_label
 _atom_site_symmetry_multiplicity
 _atom_site_fract_x
 _atom_site_fract_y
 _atom_site_fract_z
 _atom_site_occupancy
  N  N0  1  0.599470  0.599470  0.198939  1
  N  N1  1  0.400530  0.400530  0.801061  1
  Sr  Sr2  1  0.000000  0.000000  0.000000  1
