# generated using pymatgen
data_Cd(AgI2)2
_symmetry_space_group_name_H-M   'P 1'
_cell_length_a   6.55438208
_cell_length_b   6.55438208
_cell_length_c   7.94505607
_cell_angle_alpha   114.36083332
_cell_angle_beta   114.36083332
_cell_angle_gamma   90.00000000
_symmetry_Int_Tables_number   1
_chemical_formula_structural   Cd(AgI2)2
_chemical_formula_sum   'Cd1 Ag2 I4'
_cell_volume   277.22952877
_cell_formula_units_Z   1
loop_
 _symmetry_equiv_pos_site_id
 _symmetry_equiv_pos_as_xyz
  1  'x, y, z'
loop_
 _atom_site_type_symbol
 _atom_site_label
 _atom_site_symmetry_multiplicity
 _atom_site_fract_x
 _atom_site_fract_y
 _atom_site_fract_z
 _atom_site_occupancy
  Cd  Cd0  1  0.000000  0.000000  0.000000  1
  Ag  Ag1  1  0.250000  0.750000  0.500000  1
  Ag  Ag2  1  0.750000  0.250000  0.500000  1
  I  I3  1  0.378628  0.378628  0.238694  1
  I  I4  1  0.860066  0.860066  0.238694  1
  I  I5  1  0.139934  0.621372  0.761306  1
  I  I6  1  0.621372  0.139934  0.761306  1
