# generated using pymatgen
data_Rh3Se8
_symmetry_space_group_name_H-M   'P 1'
_cell_length_a   6.06469016
_cell_length_b   6.06469016
_cell_length_c   6.06469016
_cell_angle_alpha   90.81944500
_cell_angle_beta   90.81944495
_cell_angle_gamma   90.81944492
_symmetry_Int_Tables_number   1
_chemical_formula_structural   Rh3Se8
_chemical_formula_sum   'Rh3 Se8'
_cell_volume   222.99303586
_cell_formula_units_Z   1
loop_
 _symmetry_equiv_pos_site_id
 _symmetry_equiv_pos_as_xyz
  1  'x, y, z'
loop_
 _atom_site_type_symbol
 _atom_site_label
 _atom_site_symmetry_multiplicity
 _atom_site_fract_x
 _atom_site_fract_y
 _atom_site_fract_z
 _atom_site_occupancy
  Se  Se0  1  0.881517  0.384417  0.112951  1
  Se  Se1  1  0.384417  0.112951  0.881517  1
  Se  Se2  1  0.112951  0.881517  0.384417  1
  Se  Se3  1  0.378784  0.378784  0.378784  1
  Se  Se4  1  0.621216  0.621216  0.621216  1
  Se  Se5  1  0.887049  0.118483  0.615583  1
  Se  Se6  1  0.615583  0.887049  0.118483  1
  Se  Se7  1  0.118483  0.615583  0.887049  1
  Rh  Rh8  1  0.500000  0.000000  0.500000  1
  Rh  Rh9  1  0.000000  0.500000  0.500000  1
  Rh  Rh10  1  0.500000  0.500000  0.000000  1
