# generated using pymatgen
data_SiGeN2O
_symmetry_space_group_name_H-M   'P 1'
_cell_length_a   5.02942868
_cell_length_b   5.35131621
_cell_length_c   5.35131621
_cell_angle_alpha   64.21025355
_cell_angle_beta   89.74771644
_cell_angle_gamma   90.25228356
_symmetry_Int_Tables_number   1
_chemical_formula_structural   SiGeN2O
_chemical_formula_sum   'Si2 Ge2 N4 O2'
_cell_volume   129.67577299
_cell_formula_units_Z   2
loop_
 _symmetry_equiv_pos_site_id
 _symmetry_equiv_pos_as_xyz
  1  'x, y, z'
loop_
 _atom_site_type_symbol
 _atom_site_label
 _atom_site_symmetry_multiplicity
 _atom_site_fract_x
 _atom_site_fract_y
 _atom_site_fract_z
 _atom_site_occupancy
  Si  Si0  1  0.408606  0.017029  0.331767  1
  Si  Si1  1  0.408606  0.668233  0.982971  1
  Ge  Ge2  1  0.913377  0.324450  0.033553  1
  Ge  Ge3  1  0.913377  0.966447  0.675550  1
  N  N4  1  0.747572  0.658096  0.939748  1
  N  N5  1  0.747572  0.060252  0.341904  1
  N  N6  1  0.268068  0.336915  0.117259  1
  N  N7  1  0.268068  0.882741  0.663085  1
  O  O8  1  0.860097  0.260918  0.739082  1
  O  O9  1  0.332657  0.805619  0.194381  1
