# generated using pymatgen
data_TaB
_symmetry_space_group_name_H-M   'P 1'
_cell_length_a   3.16948225
_cell_length_b   3.29997806
_cell_length_c   4.65956140
_cell_angle_alpha   110.73879969
_cell_angle_beta   90.00000000
_cell_angle_gamma   90.00000000
_symmetry_Int_Tables_number   1
_chemical_formula_structural   TaB
_chemical_formula_sum   'Ta2 B2'
_cell_volume   45.57755042
_cell_formula_units_Z   2
loop_
 _symmetry_equiv_pos_site_id
 _symmetry_equiv_pos_as_xyz
  1  'x, y, z'
loop_
 _atom_site_type_symbol
 _atom_site_label
 _atom_site_symmetry_multiplicity
 _atom_site_fract_x
 _atom_site_fract_y
 _atom_site_fract_z
 _atom_site_occupancy
  B  B0  1  0.750000  0.440098  0.880196  1
  B  B1  1  0.250000  0.559902  0.119804  1
  Ta  Ta2  1  0.750000  0.145435  0.290869  1
  Ta  Ta3  1  0.250000  0.854565  0.709131  1
