# generated using pymatgen
data_Mo2S3
_symmetry_space_group_name_H-M   'P 1'
_cell_length_a   3.21203255
_cell_length_b   6.16727325
_cell_length_c   8.68760384
_cell_angle_alpha   102.83420555
_cell_angle_beta   90.00000000
_cell_angle_gamma   90.00000000
_symmetry_Int_Tables_number   1
_chemical_formula_structural   Mo2S3
_chemical_formula_sum   'Mo4 S6'
_cell_volume   167.79742331
_cell_formula_units_Z   2
loop_
 _symmetry_equiv_pos_site_id
 _symmetry_equiv_pos_as_xyz
  1  'x, y, z'
loop_
 _atom_site_type_symbol
 _atom_site_label
 _atom_site_symmetry_multiplicity
 _atom_site_fract_x
 _atom_site_fract_y
 _atom_site_fract_z
 _atom_site_occupancy
  Mo  Mo0  1  0.250000  0.107966  0.627208  1
  Mo  Mo1  1  0.750000  0.892034  0.372792  1
  Mo  Mo2  1  0.250000  0.312919  0.008693  1
  Mo  Mo3  1  0.750000  0.687081  0.991307  1
  S  S4  1  0.750000  0.027076  0.843118  1
  S  S5  1  0.750000  0.491435  0.196932  1
  S  S6  1  0.750000  0.272809  0.486864  1
  S  S7  1  0.250000  0.727191  0.513136  1
  S  S8  1  0.250000  0.972924  0.156882  1
  S  S9  1  0.250000  0.508565  0.803068  1
