# generated using pymatgen
data_SiIr
_symmetry_space_group_name_H-M   'P 1'
_cell_length_a   3.22986286
_cell_length_b   5.59508073
_cell_length_c   6.37250985
_cell_angle_alpha   90.00000000
_cell_angle_beta   90.00000000
_cell_angle_gamma   90.00000000
_symmetry_Int_Tables_number   1
_chemical_formula_structural   SiIr
_chemical_formula_sum   'Si4 Ir4'
_cell_volume   115.15981413
_cell_formula_units_Z   4
loop_
 _symmetry_equiv_pos_site_id
 _symmetry_equiv_pos_as_xyz
  1  'x, y, z'
loop_
 _atom_site_type_symbol
 _atom_site_label
 _atom_site_symmetry_multiplicity
 _atom_site_fract_x
 _atom_site_fract_y
 _atom_site_fract_z
 _atom_site_occupancy
  Si  Si0  1  0.250000  0.682901  0.939512  1
  Si  Si1  1  0.750000  0.317099  0.060488  1
  Si  Si2  1  0.250000  0.182901  0.560488  1
  Si  Si3  1  0.750000  0.817099  0.439512  1
  Ir  Ir4  1  0.250000  0.501654  0.294522  1
  Ir  Ir5  1  0.750000  0.498346  0.705478  1
  Ir  Ir6  1  0.250000  0.001654  0.205478  1
  Ir  Ir7  1  0.750000  0.998346  0.794522  1
