# generated using pymatgen
data_Fe2W
_symmetry_space_group_name_H-M   'P 1'
_cell_length_a   4.69214868
_cell_length_b   4.69214841
_cell_length_c   7.62559068
_cell_angle_alpha   90.00000000
_cell_angle_beta   90.00000000
_cell_angle_gamma   120.00000192
_symmetry_Int_Tables_number   1
_chemical_formula_structural   Fe2W
_chemical_formula_sum   'Fe8 W4'
_cell_volume   145.39437943
_cell_formula_units_Z   4
loop_
 _symmetry_equiv_pos_site_id
 _symmetry_equiv_pos_as_xyz
  1  'x, y, z'
loop_
 _atom_site_type_symbol
 _atom_site_label
 _atom_site_symmetry_multiplicity
 _atom_site_fract_x
 _atom_site_fract_y
 _atom_site_fract_z
 _atom_site_occupancy
  Fe  Fe0  1  0.343398  0.171699  0.750000  1
  Fe  Fe1  1  0.171699  0.828301  0.250000  1
  Fe  Fe2  1  0.171699  0.343398  0.250000  1
  Fe  Fe3  1  0.828301  0.656602  0.750000  1
  Fe  Fe4  1  0.000000  0.000000  0.000000  1
  Fe  Fe5  1  0.656602  0.828301  0.250000  1
  Fe  Fe6  1  0.828301  0.171699  0.750000  1
  Fe  Fe7  1  0.000000  0.000000  0.500000  1
  W  W8  1  0.666667  0.333333  0.431933  1
  W  W9  1  0.333333  0.666667  0.931933  1
  W  W10  1  0.333333  0.666667  0.568067  1
  W  W11  1  0.666667  0.333333  0.068067  1
