# generated using pymatgen
data_NbCrN
_symmetry_space_group_name_H-M   'P 1'
_cell_length_a   4.29973468
_cell_length_b   4.29973468
_cell_length_c   7.39837162
_cell_angle_alpha   90.00000000
_cell_angle_beta   90.00000000
_cell_angle_gamma   90.00000000
_symmetry_Int_Tables_number   1
_chemical_formula_structural   NbCrN
_chemical_formula_sum   'Nb4 Cr4 N4'
_cell_volume   136.77901053
_cell_formula_units_Z   4
loop_
 _symmetry_equiv_pos_site_id
 _symmetry_equiv_pos_as_xyz
  1  'x, y, z'
loop_
 _atom_site_type_symbol
 _atom_site_label
 _atom_site_symmetry_multiplicity
 _atom_site_fract_x
 _atom_site_fract_y
 _atom_site_fract_z
 _atom_site_occupancy
  Nb  Nb0  1  0.500000  0.500000  0.649616  1
  Nb  Nb1  1  0.000000  0.500000  0.003712  1
  Nb  Nb2  1  0.000000  0.000000  0.649616  1
  Nb  Nb3  1  0.500000  0.000000  0.003712  1
  Cr  Cr4  1  0.000000  0.000000  0.241275  1
  Cr  Cr5  1  0.500000  0.000000  0.412073  1
  Cr  Cr6  1  0.500000  0.500000  0.241275  1
  Cr  Cr7  1  0.000000  0.500000  0.412073  1
  N  N8  1  0.500000  0.000000  0.686912  1
  N  N9  1  0.000000  0.500000  0.686912  1
  N  N10  1  0.000000  0.000000  0.966412  1
  N  N11  1  0.500000  0.500000  0.966412  1
