# generated using pymatgen
data_V2P
_symmetry_space_group_name_H-M   'P 1'
_cell_length_a   3.27290585
_cell_length_b   6.17823060
_cell_length_c   7.56344293
_cell_angle_alpha   90.00000000
_cell_angle_beta   90.00000000
_cell_angle_gamma   90.00000000
_symmetry_Int_Tables_number   1
_chemical_formula_structural   V2P
_chemical_formula_sum   'V8 P4'
_cell_volume   152.93861776
_cell_formula_units_Z   4
loop_
 _symmetry_equiv_pos_site_id
 _symmetry_equiv_pos_as_xyz
  1  'x, y, z'
loop_
 _atom_site_type_symbol
 _atom_site_label
 _atom_site_symmetry_multiplicity
 _atom_site_fract_x
 _atom_site_fract_y
 _atom_site_fract_z
 _atom_site_occupancy
  P  P0  1  0.250000  0.747742  0.357649  1
  P  P1  1  0.750000  0.252258  0.642351  1
  P  P2  1  0.250000  0.247742  0.142351  1
  P  P3  1  0.750000  0.752258  0.857649  1
  V  V4  1  0.750000  0.040643  0.332826  1
  V  V5  1  0.250000  0.959357  0.667174  1
  V  V6  1  0.750000  0.540643  0.167174  1
  V  V7  1  0.250000  0.459357  0.832826  1
  V  V8  1  0.250000  0.360544  0.441620  1
  V  V9  1  0.750000  0.639456  0.558380  1
  V  V10  1  0.250000  0.860544  0.058380  1
  V  V11  1  0.750000  0.139456  0.941620  1
