# generated using pymatgen
data_NaHCO2
_symmetry_space_group_name_H-M   'P 1'
_cell_length_a   6.50439282
_cell_length_b   4.58769988
_cell_length_c   4.58769988
_cell_angle_alpha   96.16955196
_cell_angle_beta   108.52969495
_cell_angle_gamma   108.52969495
_symmetry_Int_Tables_number   1
_chemical_formula_structural   NaHCO2
_chemical_formula_sum   'Na2 H2 C2 O4'
_cell_volume   119.71744618
_cell_formula_units_Z   2
loop_
 _symmetry_equiv_pos_site_id
 _symmetry_equiv_pos_as_xyz
  1  'x, y, z'
loop_
 _atom_site_type_symbol
 _atom_site_label
 _atom_site_symmetry_multiplicity
 _atom_site_fract_x
 _atom_site_fract_y
 _atom_site_fract_z
 _atom_site_occupancy
  Na  Na0  1  0.750000  0.874561  0.625439  1
  Na  Na1  1  0.250000  0.125439  0.374561  1
  H  H2  1  0.750000  0.289798  0.210202  1
  H  H3  1  0.250000  0.710202  0.789798  1
  C  C4  1  0.750000  0.453118  0.046883  1
  C  C5  1  0.250000  0.546883  0.953117  1
  O  O6  1  0.639320  0.329752  0.753902  1
  O  O7  1  0.860680  0.746098  0.170248  1
  O  O8  1  0.360680  0.670248  0.246098  1
  O  O9  1  0.139320  0.253902  0.829752  1
