# generated using pymatgen
data_Ba2SnO4
_symmetry_space_group_name_H-M   'P 1'
_cell_length_a   4.22392484
_cell_length_b   4.22392484
_cell_length_c   7.35421829
_cell_angle_alpha   106.68902300
_cell_angle_beta   106.68902308
_cell_angle_gamma   89.99999999
_symmetry_Int_Tables_number   1
_chemical_formula_structural   Ba2SnO4
_chemical_formula_sum   'Ba2 Sn1 O4'
_cell_volume   119.90226595
_cell_formula_units_Z   1
loop_
 _symmetry_equiv_pos_site_id
 _symmetry_equiv_pos_as_xyz
  1  'x, y, z'
loop_
 _atom_site_type_symbol
 _atom_site_label
 _atom_site_symmetry_multiplicity
 _atom_site_fract_x
 _atom_site_fract_y
 _atom_site_fract_z
 _atom_site_occupancy
  O  O0  1  0.844319  0.844319  0.688639  1
  O  O1  1  0.155681  0.155681  0.311361  1
  O  O2  1  0.500000  0.000000  0.000000  1
  O  O3  1  0.000000  0.500000  0.000000  1
  Sn  Sn4  1  0.000000  0.000000  0.000000  1
  Ba  Ba5  1  0.645520  0.645520  0.291041  1
  Ba  Ba6  1  0.354480  0.354480  0.708959  1
