# generated using pymatgen
data_PNO
_symmetry_space_group_name_H-M   'P 1'
_cell_length_a   4.61016115
_cell_length_b   9.69012615
_cell_length_c   6.92389673
_cell_angle_alpha   90.71752056
_cell_angle_beta   90.61964552
_cell_angle_gamma   90.06278111
_symmetry_Int_Tables_number   1
_chemical_formula_structural   PNO
_chemical_formula_sum   'P8 N8 O8'
_cell_volume   309.26896131
_cell_formula_units_Z   8
loop_
 _symmetry_equiv_pos_site_id
 _symmetry_equiv_pos_as_xyz
  1  'x, y, z'
loop_
 _atom_site_type_symbol
 _atom_site_label
 _atom_site_symmetry_multiplicity
 _atom_site_fract_x
 _atom_site_fract_y
 _atom_site_fract_z
 _atom_site_occupancy
  N  N0  1  0.133891  0.125633  0.125895  1
  N  N1  1  0.364463  0.125337  0.623646  1
  N  N2  1  0.354414  0.629763  0.634248  1
  N  N3  1  0.636408  0.376308  0.631704  1
  N  N4  1  0.634943  0.873948  0.621431  1
  N  N5  1  0.749812  0.673759  0.370279  1
  N  N6  1  0.868625  0.378867  0.130181  1
  N  N7  1  0.868835  0.871347  0.116319  1
  O  O8  1  0.132162  0.627883  0.116849  1
  O  O9  1  0.258754  0.443857  0.884518  1
  O  O10  1  0.249499  0.940861  0.871520  1
  O  O11  1  0.249986  0.312929  0.378570  1
  O  O12  1  0.256340  0.806208  0.365586  1
  O  O13  1  0.748720  0.192729  0.374824  1
  O  O14  1  0.748673  0.060865  0.875017  1
  O  O15  1  0.754636  0.564269  0.879194  1
  P  P16  1  0.000780  0.998557  0.011019  1
  P  P17  1  0.000751  0.250272  0.239201  1
  P  P18  1  0.997347  0.497755  0.010749  1
  P  P19  1  0.979769  0.751931  0.249092  1
  P  P20  1  0.500438  0.250575  0.517014  1
  P  P21  1  0.512696  0.743367  0.505241  1
  P  P22  1  0.498393  0.504813  0.735249  1
  P  P23  1  0.499663  0.998165  0.732654  1
