# generated using pymatgen
data_CrSiTe3
_symmetry_space_group_name_H-M   'P 1'
_cell_length_a   8.54709493
_cell_length_b   8.54709492
_cell_length_c   8.54709493
_cell_angle_alpha   47.15901562
_cell_angle_beta   47.15901562
_cell_angle_gamma   47.15901564
_symmetry_Int_Tables_number   1
_chemical_formula_structural   CrSiTe3
_chemical_formula_sum   'Cr2 Si2 Te6'
_cell_volume   306.97391584
_cell_formula_units_Z   2
loop_
 _symmetry_equiv_pos_site_id
 _symmetry_equiv_pos_as_xyz
  1  'x, y, z'
loop_
 _atom_site_type_symbol
 _atom_site_label
 _atom_site_symmetry_multiplicity
 _atom_site_fract_x
 _atom_site_fract_y
 _atom_site_fract_z
 _atom_site_occupancy
  Si  Si0  1  0.949769  0.949769  0.949769  1
  Si  Si1  1  0.050231  0.050231  0.050231  1
  Cr  Cr2  1  0.666435  0.666435  0.666435  1
  Cr  Cr3  1  0.333565  0.333565  0.333565  1
  Te  Te4  1  0.924938  0.560977  0.286583  1
  Te  Te5  1  0.286583  0.924938  0.560977  1
  Te  Te6  1  0.560977  0.286583  0.924938  1
  Te  Te7  1  0.075062  0.439023  0.713417  1
  Te  Te8  1  0.713417  0.075062  0.439023  1
  Te  Te9  1  0.439023  0.713417  0.075062  1
