# generated using pymatgen
data_Zr5Te4
_symmetry_space_group_name_H-M   'P 1'
_cell_length_a   3.87645851
_cell_length_b   7.93648492
_cell_length_c   7.93648492
_cell_angle_alpha   86.58072256
_cell_angle_beta   75.86439936
_cell_angle_gamma   75.86439928
_symmetry_Int_Tables_number   1
_chemical_formula_structural   Zr5Te4
_chemical_formula_sum   'Zr5 Te4'
_cell_volume   229.60674743
_cell_formula_units_Z   1
loop_
 _symmetry_equiv_pos_site_id
 _symmetry_equiv_pos_as_xyz
  1  'x, y, z'
loop_
 _atom_site_type_symbol
 _atom_site_label
 _atom_site_symmetry_multiplicity
 _atom_site_fract_x
 _atom_site_fract_y
 _atom_site_fract_z
 _atom_site_occupancy
  Zr  Zr0  1  0.000000  0.000000  0.000000  1
  Zr  Zr1  1  0.309635  0.059104  0.321625  1
  Zr  Zr2  1  0.631261  0.678375  0.059104  1
  Zr  Zr3  1  0.368739  0.321625  0.940896  1
  Zr  Zr4  1  0.690365  0.940896  0.678375  1
  Te  Te5  1  0.052347  0.229044  0.666262  1
  Te  Te6  1  0.718609  0.333738  0.229044  1
  Te  Te7  1  0.281391  0.666262  0.770956  1
  Te  Te8  1  0.947653  0.770956  0.333738  1
