# generated using pymatgen
data_Zr2Ga3
_symmetry_space_group_name_H-M   'P 1'
_cell_length_a   5.51812372
_cell_length_b   5.51812371
_cell_length_c   7.46043489
_cell_angle_alpha   100.79463473
_cell_angle_beta   100.79463476
_cell_angle_gamma   119.57578139
_symmetry_Int_Tables_number   1
_chemical_formula_structural   Zr2Ga3
_chemical_formula_sum   'Zr4 Ga6'
_cell_volume   183.37438007
_cell_formula_units_Z   2
loop_
 _symmetry_equiv_pos_site_id
 _symmetry_equiv_pos_as_xyz
  1  'x, y, z'
loop_
 _atom_site_type_symbol
 _atom_site_label
 _atom_site_symmetry_multiplicity
 _atom_site_fract_x
 _atom_site_fract_y
 _atom_site_fract_z
 _atom_site_occupancy
  Ga  Ga0  1  0.601832  0.601832  0.000000  1
  Ga  Ga1  1  0.851832  0.351832  0.500000  1
  Ga  Ga2  1  0.519940  0.159094  0.730803  1
  Ga  Ga3  1  0.428291  0.789136  0.269197  1
  Ga  Ga4  1  0.409094  0.269940  0.230803  1
  Ga  Ga5  1  0.039136  0.178291  0.769197  1
  Zr  Zr6  1  0.113535  0.752008  0.895607  1
  Zr  Zr7  1  0.856402  0.217929  0.104393  1
  Zr  Zr8  1  0.002008  0.863536  0.395607  1
  Zr  Zr9  1  0.467929  0.606402  0.604393  1
