# generated using pymatgen
data_Sr3Ti2O7
_symmetry_space_group_name_H-M   'P 1'
_cell_length_a   3.94090767
_cell_length_b   3.94090768
_cell_length_c   10.62778180
_cell_angle_alpha   100.68480032
_cell_angle_beta   100.68480035
_cell_angle_gamma   89.99999995
_symmetry_Int_Tables_number   1
_chemical_formula_structural   Sr3Ti2O7
_chemical_formula_sum   'Sr3 Ti2 O7'
_cell_volume   159.28252260
_cell_formula_units_Z   1
loop_
 _symmetry_equiv_pos_site_id
 _symmetry_equiv_pos_as_xyz
  1  'x, y, z'
loop_
 _atom_site_type_symbol
 _atom_site_label
 _atom_site_symmetry_multiplicity
 _atom_site_fract_x
 _atom_site_fract_y
 _atom_site_fract_z
 _atom_site_occupancy
  O  O0  1  0.903661  0.403661  0.807321  1
  O  O1  1  0.806192  0.806192  0.612384  1
  O  O2  1  0.000000  0.000000  0.000000  1
  O  O3  1  0.596339  0.096339  0.192679  1
  O  O4  1  0.096339  0.596339  0.192679  1
  O  O5  1  0.403661  0.903661  0.807321  1
  O  O6  1  0.193808  0.193808  0.387616  1
  Ti  Ti7  1  0.097768  0.097768  0.195536  1
  Ti  Ti8  1  0.902232  0.902232  0.804464  1
  Sr  Sr9  1  0.315737  0.315737  0.631474  1
  Sr  Sr10  1  0.500000  0.500000  0.000000  1
  Sr  Sr11  1  0.684263  0.684263  0.368526  1
