# generated using pymatgen
data_TaPt2
_symmetry_space_group_name_H-M   'P 1'
_cell_length_a   4.79828079
_cell_length_b   4.84773077
_cell_length_c   4.89155112
_cell_angle_alpha   119.70409910
_cell_angle_beta   90.00000000
_cell_angle_gamma   90.00000000
_symmetry_Int_Tables_number   1
_chemical_formula_structural   TaPt2
_chemical_formula_sum   'Ta2 Pt4'
_cell_volume   98.82995683
_cell_formula_units_Z   2
loop_
 _symmetry_equiv_pos_site_id
 _symmetry_equiv_pos_as_xyz
  1  'x, y, z'
loop_
 _atom_site_type_symbol
 _atom_site_label
 _atom_site_symmetry_multiplicity
 _atom_site_fract_x
 _atom_site_fract_y
 _atom_site_fract_z
 _atom_site_occupancy
  Ta  Ta0  1  0.750000  0.229626  0.000000  1
  Ta  Ta1  1  0.250000  0.770374  0.000000  1
  Pt  Pt2  1  0.250000  0.119768  0.675940  1
  Pt  Pt3  1  0.750000  0.880232  0.324060  1
  Pt  Pt4  1  0.750000  0.556173  0.675940  1
  Pt  Pt5  1  0.250000  0.443827  0.324060  1
