# generated using pymatgen
data_KLiTe
_symmetry_space_group_name_H-M   'P 1'
_cell_length_a   4.85437339
_cell_length_b   4.85437339
_cell_length_c   7.77268014
_cell_angle_alpha   90.00000000
_cell_angle_beta   90.00000000
_cell_angle_gamma   90.00000000
_symmetry_Int_Tables_number   1
_chemical_formula_structural   KLiTe
_chemical_formula_sum   'K2 Li2 Te2'
_cell_volume   183.16274899
_cell_formula_units_Z   2
loop_
 _symmetry_equiv_pos_site_id
 _symmetry_equiv_pos_as_xyz
  1  'x, y, z'
loop_
 _atom_site_type_symbol
 _atom_site_label
 _atom_site_symmetry_multiplicity
 _atom_site_fract_x
 _atom_site_fract_y
 _atom_site_fract_z
 _atom_site_occupancy
  Li  Li0  1  0.250000  0.750000  0.000000  1
  Li  Li1  1  0.750000  0.250000  0.000000  1
  K  K2  1  0.250000  0.250000  0.664851  1
  K  K3  1  0.750000  0.750000  0.335149  1
  Te  Te4  1  0.250000  0.250000  0.198195  1
  Te  Te5  1  0.750000  0.750000  0.801805  1
