# generated using pymatgen
data_CaAlSi
_symmetry_space_group_name_H-M   'P 1'
_cell_length_a   4.20529327
_cell_length_b   4.20529366
_cell_length_c   26.24099398
_cell_angle_alpha   90.00000000
_cell_angle_beta   90.00000000
_cell_angle_gamma   119.99999682
_symmetry_Int_Tables_number   1
_chemical_formula_structural   CaAlSi
_chemical_formula_sum   'Ca6 Al6 Si6'
_cell_volume   401.88661697
_cell_formula_units_Z   6
loop_
 _symmetry_equiv_pos_site_id
 _symmetry_equiv_pos_as_xyz
  1  'x, y, z'
loop_
 _atom_site_type_symbol
 _atom_site_label
 _atom_site_symmetry_multiplicity
 _atom_site_fract_x
 _atom_site_fract_y
 _atom_site_fract_z
 _atom_site_occupancy
  Ca  Ca0  1  0.000000  0.000000  0.332935  1
  Ca  Ca1  1  0.000000  0.000000  0.832935  1
  Ca  Ca2  1  0.000000  0.000000  0.168656  1
  Ca  Ca3  1  0.000000  0.000000  0.000558  1
  Ca  Ca4  1  0.000000  0.000000  0.668656  1
  Ca  Ca5  1  0.000000  0.000000  0.500558  1
  Al  Al6  1  0.333333  0.666667  0.409942  1
  Al  Al7  1  0.333333  0.666667  0.251563  1
  Al  Al8  1  0.333333  0.666667  0.091517  1
  Al  Al9  1  0.666667  0.333333  0.909942  1
  Al  Al10  1  0.666667  0.333333  0.751563  1
  Al  Al11  1  0.666667  0.333333  0.591517  1
  Si  Si12  1  0.333333  0.666667  0.578695  1
  Si  Si13  1  0.333333  0.666667  0.922361  1
  Si  Si14  1  0.333333  0.666667  0.750133  1
  Si  Si15  1  0.666667  0.333333  0.250133  1
  Si  Si16  1  0.666667  0.333333  0.078695  1
  Si  Si17  1  0.666667  0.333333  0.422361  1
