# generated using pymatgen
data_Ba2ZnReO6
_symmetry_space_group_name_H-M   'P 1'
_cell_length_a   5.80684982
_cell_length_b   5.80692893
_cell_length_c   5.80690841
_cell_angle_alpha   59.99963979
_cell_angle_beta   60.00017836
_cell_angle_gamma   59.99966691
_symmetry_Int_Tables_number   1
_chemical_formula_structural   Ba2ZnReO6
_chemical_formula_sum   'Ba2 Zn1 Re1 O6'
_cell_volume   138.45715172
_cell_formula_units_Z   1
loop_
 _symmetry_equiv_pos_site_id
 _symmetry_equiv_pos_as_xyz
  1  'x, y, z'
loop_
 _atom_site_type_symbol
 _atom_site_label
 _atom_site_symmetry_multiplicity
 _atom_site_fract_x
 _atom_site_fract_y
 _atom_site_fract_z
 _atom_site_occupancy
  O  O0  1  0.262487  0.737514  0.262489  1
  O  O1  1  0.262485  0.262487  0.737515  1
  O  O2  1  0.737518  0.262488  0.262480  1
  Ba  Ba3  1  0.750001  0.750000  0.749998  1
  O  O4  1  0.737513  0.737516  0.262481  1
  Ba  Ba5  1  0.249999  0.250000  0.250000  1
  O  O6  1  0.262481  0.737514  0.737517  1
  Re  Re7  1  0.500002  0.499994  0.500009  1
  Zn  Zn8  1  1.000000  0.000001  0.999999  1
  O  O9  1  0.737514  0.262486  0.737512  1
