# generated using pymatgen
data_CuS
_symmetry_space_group_name_H-M   'P 1'
_cell_length_a   3.77707643
_cell_length_b   3.79322346
_cell_length_c   16.40520439
_cell_angle_alpha   89.99975069
_cell_angle_beta   89.99996354
_cell_angle_gamma   60.14055583
_symmetry_Int_Tables_number   1
_chemical_formula_structural   CuS
_chemical_formula_sum   'Cu6 S6'
_cell_volume   203.84020305
_cell_formula_units_Z   6
loop_
 _symmetry_equiv_pos_site_id
 _symmetry_equiv_pos_as_xyz
  1  'x, y, z'
loop_
 _atom_site_type_symbol
 _atom_site_label
 _atom_site_symmetry_multiplicity
 _atom_site_fract_x
 _atom_site_fract_y
 _atom_site_fract_z
 _atom_site_occupancy
  Cu  Cu0  1  0.663230  0.673542  0.607066  1
  Cu  Cu1  1  0.336771  0.326459  0.107061  1
  Cu  Cu2  1  0.663231  0.673542  0.892938  1
  Cu  Cu3  1  0.637922  0.724153  0.249989  1
  Cu  Cu4  1  0.336770  0.326462  0.392931  1
  Cu  Cu5  1  0.362078  0.275846  0.750000  1
  S  S6  1  0.998462  0.003075  0.564154  1
  S  S7  1  0.693603  0.612794  0.749998  1
  S  S8  1  0.001538  0.996924  0.064147  1
  S  S9  1  0.306398  0.387203  0.250011  1
  S  S10  1  0.998461  0.003078  0.935856  1
  S  S11  1  0.001537  0.996924  0.435849  1
