# generated using pymatgen
data_SiO2
_symmetry_space_group_name_H-M   'P 1'
_cell_length_a   5.01919897
_cell_length_b   5.01919897
_cell_length_c   6.97378666
_cell_angle_alpha   90.00000000
_cell_angle_beta   90.00000000
_cell_angle_gamma   90.00000000
_symmetry_Int_Tables_number   1
_chemical_formula_structural   SiO2
_chemical_formula_sum   'Si4 O8'
_cell_volume   175.68613225
_cell_formula_units_Z   4
loop_
 _symmetry_equiv_pos_site_id
 _symmetry_equiv_pos_as_xyz
  1  'x, y, z'
loop_
 _atom_site_type_symbol
 _atom_site_label
 _atom_site_symmetry_multiplicity
 _atom_site_fract_x
 _atom_site_fract_y
 _atom_site_fract_z
 _atom_site_occupancy
  Si  Si0  1  0.802732  0.197268  0.750000  1
  Si  Si1  1  0.302732  0.302732  0.000000  1
  Si  Si2  1  0.197268  0.802732  0.250000  1
  Si  Si3  1  0.697268  0.697268  0.500000  1
  O  O4  1  0.737905  0.389877  0.568036  1
  O  O5  1  0.262095  0.610123  0.068036  1
  O  O6  1  0.762095  0.889877  0.681964  1
  O  O7  1  0.110123  0.237905  0.818036  1
  O  O8  1  0.237905  0.110123  0.181964  1
  O  O9  1  0.389877  0.737905  0.431964  1
  O  O10  1  0.889877  0.762095  0.318036  1
  O  O11  1  0.610123  0.262095  0.931964  1
