# generated using pymatgen
data_LiAlSiO4
_symmetry_space_group_name_H-M   'P 1'
_cell_length_a   10.59744380
_cell_length_b   10.59744380
_cell_length_c   11.38814215
_cell_angle_alpha   90.00000000
_cell_angle_beta   90.00000000
_cell_angle_gamma   119.99999999
_symmetry_Int_Tables_number   1
_chemical_formula_structural   LiAlSiO4
_chemical_formula_sum   'Li12 Al12 Si12 O48'
_cell_volume   1107.60716274
_cell_formula_units_Z   12
loop_
 _symmetry_equiv_pos_site_id
 _symmetry_equiv_pos_as_xyz
  1  'x, y, z'
loop_
 _atom_site_type_symbol
 _atom_site_label
 _atom_site_symmetry_multiplicity
 _atom_site_fract_x
 _atom_site_fract_y
 _atom_site_fract_z
 _atom_site_occupancy
  Li  Li0  1  0.500000  0.000000  0.000000  1
  Li  Li1  1  0.500000  0.500000  0.666667  1
  Li  Li2  1  0.000000  0.500000  0.333333  1
  Li  Li3  1  0.000000  0.000000  0.500000  1
  Li  Li4  1  0.000000  0.000000  0.166667  1
  Li  Li5  1  0.000000  0.000000  0.833333  1
  Li  Li6  1  0.500000  0.000000  0.328037  1
  Li  Li7  1  0.500000  0.500000  0.994704  1
  Li  Li8  1  0.000000  0.500000  0.661371  1
  Li  Li9  1  0.500000  0.000000  0.671963  1
  Li  Li10  1  0.500000  0.500000  0.338629  1
  Li  Li11  1  0.000000  0.500000  0.005296  1
  O  O12  1  0.894186  0.293571  0.262653  1
  O  O13  1  0.591880  0.391635  0.415763  1
  O  O14  1  0.608365  0.200245  0.749096  1
  O  O15  1  0.799755  0.408120  0.082429  1
  O  O16  1  0.200245  0.591880  0.082429  1
  O  O17  1  0.408120  0.799755  0.250904  1
  O  O18  1  0.408120  0.608365  0.415763  1
  O  O19  1  0.391635  0.799755  0.749096  1
  O  O20  1  0.608365  0.408120  0.917571  1
  O  O21  1  0.799755  0.391635  0.584237  1
  O  O22  1  0.200245  0.608365  0.584237  1
  O  O23  1  0.391635  0.591880  0.917571  1
  O  O24  1  0.591880  0.200245  0.250904  1
  O  O25  1  0.399385  0.293571  0.737347  1
  O  O26  1  0.706429  0.105814  0.070680  1
  O  O27  1  0.894186  0.600615  0.404013  1
  O  O28  1  0.105814  0.399385  0.404013  1
  O  O29  1  0.600615  0.894186  0.929320  1
  O  O30  1  0.600615  0.706429  0.737347  1
  O  O31  1  0.399518  0.302723  0.260229  1
  O  O32  1  0.706429  0.600615  0.595987  1
  O  O33  1  0.105814  0.706429  0.262653  1
  O  O34  1  0.293571  0.399385  0.595987  1
  O  O35  1  0.399385  0.105814  0.929320  1
  O  O36  1  0.198067  0.087140  0.090685  1
  O  O37  1  0.110927  0.198067  0.757352  1
  O  O38  1  0.087140  0.889073  0.424018  1
  O  O39  1  0.912860  0.110927  0.424018  1
  O  O40  1  0.889073  0.801933  0.757352  1
  O  O41  1  0.110927  0.912860  0.909315  1
  O  O42  1  0.801933  0.889073  0.575982  1
  O  O43  1  0.801933  0.912860  0.090685  1
  O  O44  1  0.087140  0.198067  0.242648  1
  O  O45  1  0.912860  0.801933  0.242648  1
  O  O46  1  0.889073  0.087140  0.909315  1
  O  O47  1  0.198067  0.110927  0.575982  1
  O  O48  1  0.399518  0.096795  0.406438  1
  O  O49  1  0.302723  0.399518  0.073105  1
  O  O50  1  0.096795  0.697277  0.739771  1
  O  O51  1  0.903205  0.302723  0.739771  1
  O  O52  1  0.697277  0.600482  0.073105  1
  O  O53  1  0.302723  0.903205  0.593562  1
  O  O54  1  0.600482  0.697277  0.260229  1
  O  O55  1  0.600482  0.903205  0.406438  1
  O  O56  1  0.096795  0.399518  0.926895  1
  O  O57  1  0.903205  0.600482  0.926895  1
  O  O58  1  0.697277  0.096795  0.593562  1
  O  O59  1  0.293571  0.894186  0.070680  1
  Al  Al60  1  0.250946  0.250946  0.166667  1
  Al  Al61  1  0.000000  0.749054  0.833333  1
  Al  Al62  1  0.000000  0.250946  0.833333  1
  Al  Al63  1  0.250946  0.000000  0.500000  1
  Al  Al64  1  0.749054  0.749054  0.166667  1
  Al  Al65  1  0.749054  0.000000  0.500000  1
  Al  Al66  1  0.251186  0.502372  0.500000  1
  Al  Al67  1  0.748814  0.251186  0.166667  1
  Al  Al68  1  0.502372  0.251186  0.833333  1
  Al  Al69  1  0.497628  0.748814  0.833333  1
  Al  Al70  1  0.251186  0.748814  0.166667  1
  Al  Al71  1  0.748814  0.497628  0.500000  1
  Si  Si72  1  0.247495  0.000000  0.000000  1
  Si  Si73  1  0.247495  0.247495  0.666667  1
  Si  Si74  1  0.000000  0.752505  0.333333  1
  Si  Si75  1  0.000000  0.247495  0.333333  1
  Si  Si76  1  0.752505  0.752505  0.666667  1
  Si  Si77  1  0.752505  0.000000  0.000000  1
  Si  Si78  1  0.248265  0.496531  0.000000  1
  Si  Si79  1  0.751735  0.248265  0.666667  1
  Si  Si80  1  0.496531  0.248265  0.333333  1
  Si  Si81  1  0.503469  0.751735  0.333333  1
  Si  Si82  1  0.248265  0.751735  0.666667  1
  Si  Si83  1  0.751735  0.503469  0.000000  1
