# generated using pymatgen
data_Li(Fe3Ge2)2
_symmetry_space_group_name_H-M   'P 1'
_cell_length_a   5.02105915
_cell_length_b   5.02137688
_cell_length_c   7.12219052
_cell_angle_alpha   69.42414594
_cell_angle_beta   90.00000000
_cell_angle_gamma   119.99790681
_symmetry_Int_Tables_number   1
_chemical_formula_structural   Li(Fe3Ge2)2
_chemical_formula_sum   'Li1 Fe6 Ge4'
_cell_volume   142.13401246
_cell_formula_units_Z   1
loop_
 _symmetry_equiv_pos_site_id
 _symmetry_equiv_pos_as_xyz
  1  'x, y, z'
loop_
 _atom_site_type_symbol
 _atom_site_label
 _atom_site_symmetry_multiplicity
 _atom_site_fract_x
 _atom_site_fract_y
 _atom_site_fract_z
 _atom_site_occupancy
  Li  Li0  1  0.000000  0.000000  0.500000  1
  Fe  Fe1  1  0.599214  0.198427  0.184132  1
  Fe  Fe2  1  0.400786  0.801573  0.815868  1
  Fe  Fe3  1  0.112806  0.709555  0.185736  1
  Fe  Fe4  1  0.887194  0.290445  0.814264  1
  Fe  Fe5  1  0.596749  0.709555  0.185736  1
  Fe  Fe6  1  0.403251  0.290445  0.814264  1
  Ge  Ge7  1  0.875988  0.751976  0.880381  1
  Ge  Ge8  1  0.667164  0.334327  0.494624  1
  Ge  Ge9  1  0.124012  0.248024  0.119619  1
  Ge  Ge10  1  0.332836  0.665673  0.505376  1
