# generated using pymatgen
data_Al(CrB)2
_symmetry_space_group_name_H-M   'P 1'
_cell_length_a   2.92686367
_cell_length_b   2.93706718
_cell_length_c   5.71190059
_cell_angle_alpha   90.00000000
_cell_angle_beta   104.84514760
_cell_angle_gamma   90.00000000
_symmetry_Int_Tables_number   1
_chemical_formula_structural   Al(CrB)2
_chemical_formula_sum   'Al1 Cr2 B2'
_cell_volume   47.46282697
_cell_formula_units_Z   1
loop_
 _symmetry_equiv_pos_site_id
 _symmetry_equiv_pos_as_xyz
  1  'x, y, z'
loop_
 _atom_site_type_symbol
 _atom_site_label
 _atom_site_symmetry_multiplicity
 _atom_site_fract_x
 _atom_site_fract_y
 _atom_site_fract_z
 _atom_site_occupancy
  B  B0  1  0.205618  0.000000  0.411237  1
  B  B1  1  0.794382  0.000000  0.588763  1
  Al  Al2  1  0.000000  0.000000  0.000000  1
  Cr  Cr3  1  0.351967  0.500000  0.703934  1
  Cr  Cr4  1  0.648033  0.500000  0.296066  1
