# generated using pymatgen
data_B2O3
_symmetry_space_group_name_H-M   'P 1'
_cell_length_a   4.17213687
_cell_length_b   4.58080798
_cell_length_c   4.58080798
_cell_angle_alpha   118.67020997
_cell_angle_beta   90.00000000
_cell_angle_gamma   90.00000000
_symmetry_Int_Tables_number   1
_chemical_formula_structural   B2O3
_chemical_formula_sum   'B4 O6'
_cell_volume   76.81362106
_cell_formula_units_Z   2
loop_
 _symmetry_equiv_pos_site_id
 _symmetry_equiv_pos_as_xyz
  1  'x, y, z'
loop_
 _atom_site_type_symbol
 _atom_site_label
 _atom_site_symmetry_multiplicity
 _atom_site_fract_x
 _atom_site_fract_y
 _atom_site_fract_z
 _atom_site_occupancy
  B  B0  1  0.567537  0.323535  0.992822  1
  B  B1  1  0.067537  0.676465  0.007178  1
  B  B2  1  0.067537  0.007178  0.676465  1
  B  B3  1  0.567537  0.992822  0.323535  1
  O  O4  1  0.503763  0.240622  0.240622  1
  O  O5  1  0.003763  0.759378  0.759378  1
  O  O6  1  0.416882  0.659809  0.082103  1
  O  O7  1  0.916882  0.340191  0.917897  1
  O  O8  1  0.916882  0.917897  0.340191  1
  O  O9  1  0.416882  0.082103  0.659809  1
