# generated using pymatgen
data_KN3
_symmetry_space_group_name_H-M   'P 1'
_cell_length_a   5.68756245
_cell_length_b   5.68756245
_cell_length_c   5.68756245
_cell_angle_alpha   101.04116430
_cell_angle_beta   113.84369210
_cell_angle_gamma   113.84369206
_symmetry_Int_Tables_number   1
_chemical_formula_structural   KN3
_chemical_formula_sum   'K2 N6'
_cell_volume   139.37951787
_cell_formula_units_Z   2
loop_
 _symmetry_equiv_pos_site_id
 _symmetry_equiv_pos_as_xyz
  1  'x, y, z'
loop_
 _atom_site_type_symbol
 _atom_site_label
 _atom_site_symmetry_multiplicity
 _atom_site_fract_x
 _atom_site_fract_y
 _atom_site_fract_z
 _atom_site_occupancy
  N  N0  1  0.500000  0.000000  0.500000  1
  N  N1  1  0.500000  0.500000  0.000000  1
  N  N2  1  0.770662  0.635331  0.135331  1
  N  N3  1  0.500000  0.135331  0.364669  1
  N  N4  1  0.500000  0.864669  0.635331  1
  N  N5  1  0.229338  0.364669  0.864669  1
  K  K6  1  0.000000  0.750000  0.750000  1
  K  K7  1  0.000000  0.250000  0.250000  1
