# generated using pymatgen
data_V2PC
_symmetry_space_group_name_H-M   'P 1'
_cell_length_a   3.07417295
_cell_length_b   3.07417295
_cell_length_c   10.89639748
_cell_angle_alpha   90.00000000
_cell_angle_beta   90.00000000
_cell_angle_gamma   120.00000008
_symmetry_Int_Tables_number   1
_chemical_formula_structural   V2PC
_chemical_formula_sum   'V4 P2 C2'
_cell_volume   89.18055328
_cell_formula_units_Z   2
loop_
 _symmetry_equiv_pos_site_id
 _symmetry_equiv_pos_as_xyz
  1  'x, y, z'
loop_
 _atom_site_type_symbol
 _atom_site_label
 _atom_site_symmetry_multiplicity
 _atom_site_fract_x
 _atom_site_fract_y
 _atom_site_fract_z
 _atom_site_occupancy
  C  C0  1  0.000000  0.000000  0.000000  1
  C  C1  1  0.000000  0.000000  0.500000  1
  P  P2  1  0.333333  0.666667  0.750000  1
  P  P3  1  0.666667  0.333333  0.250000  1
  V  V4  1  0.333333  0.666667  0.401822  1
  V  V5  1  0.666667  0.333333  0.901822  1
  V  V6  1  0.666667  0.333333  0.598178  1
  V  V7  1  0.333333  0.666667  0.098178  1
