# generated using pymatgen
data_SiC
_symmetry_space_group_name_H-M   'P 1'
_cell_length_a   17.79981460
_cell_length_b   17.79981460
_cell_length_c   17.79981460
_cell_angle_alpha   9.97662268
_cell_angle_beta   9.97662268
_cell_angle_gamma   9.97662268
_symmetry_Int_Tables_number   1
_chemical_formula_structural   SiC
_chemical_formula_sum   'Si7 C7'
_cell_volume   146.96068074
_cell_formula_units_Z   7
loop_
 _symmetry_equiv_pos_site_id
 _symmetry_equiv_pos_as_xyz
  1  'x, y, z'
loop_
 _atom_site_type_symbol
 _atom_site_label
 _atom_site_symmetry_multiplicity
 _atom_site_fract_x
 _atom_site_fract_y
 _atom_site_fract_z
 _atom_site_occupancy
  C  C0  1  0.845245  0.845245  0.845245  1
  C  C1  1  0.749944  0.749944  0.749944  1
  C  C2  1  0.607245  0.607245  0.607245  1
  C  C3  1  0.464371  0.464371  0.464371  1
  C  C4  1  0.321452  0.321452  0.321452  1
  C  C5  1  0.226151  0.226151  0.226151  1
  C  C6  1  0.035712  0.035712  0.035712  1
  Si  Si7  1  0.809526  0.809526  0.809526  1
  Si  Si8  1  0.714227  0.714227  0.714227  1
  Si  Si9  1  0.571424  0.571424  0.571424  1
  Si  Si10  1  0.428549  0.428549  0.428549  1
  Si  Si11  1  0.285734  0.285734  0.285734  1
  Si  Si12  1  0.190435  0.190435  0.190435  1
  Si  Si13  1  0.999982  0.999982  0.999982  1
