# generated using pymatgen
data_CuO
_symmetry_space_group_name_H-M   'P 1'
_cell_length_a   2.93868917
_cell_length_b   5.16074680
_cell_length_c   2.93782365
_cell_angle_alpha   89.72770845
_cell_angle_beta   88.64720308
_cell_angle_gamma   89.72786863
_symmetry_Int_Tables_number   1
_chemical_formula_structural   CuO
_chemical_formula_sum   'Cu2 O2'
_cell_volume   44.54113569
_cell_formula_units_Z   2
loop_
 _symmetry_equiv_pos_site_id
 _symmetry_equiv_pos_as_xyz
  1  'x, y, z'
loop_
 _atom_site_type_symbol
 _atom_site_label
 _atom_site_symmetry_multiplicity
 _atom_site_fract_x
 _atom_site_fract_y
 _atom_site_fract_z
 _atom_site_occupancy
  Cu  Cu0  1  0.486471  0.507984  0.986512  1
  Cu  Cu1  1  0.986509  0.007984  0.486472  1
  O  O2  1  0.484651  0.257936  0.488366  1
  O  O3  1  0.488369  0.758096  0.484650  1
