# generated using pymatgen
data_MnWO4
_symmetry_space_group_name_H-M   'P 1'
_cell_length_a   4.88933399
_cell_length_b   5.11725752
_cell_length_c   5.85066856
_cell_angle_alpha   90.00000000
_cell_angle_beta   90.00000000
_cell_angle_gamma   91.69202119
_symmetry_Int_Tables_number   1
_chemical_formula_structural   MnWO4
_chemical_formula_sum   'Mn2 W2 O8'
_cell_volume   146.31979106
_cell_formula_units_Z   2
loop_
 _symmetry_equiv_pos_site_id
 _symmetry_equiv_pos_as_xyz
  1  'x, y, z'
loop_
 _atom_site_type_symbol
 _atom_site_label
 _atom_site_symmetry_multiplicity
 _atom_site_fract_x
 _atom_site_fract_y
 _atom_site_fract_z
 _atom_site_occupancy
  O  O0  1  0.747050  0.106116  0.372099  1
  O  O1  1  0.252949  0.393884  0.372099  1
  O  O2  1  0.252949  0.893886  0.627901  1
  O  O3  1  0.747051  0.606115  0.627901  1
  O  O4  1  0.789991  0.060555  0.895731  1
  O  O5  1  0.210007  0.439445  0.895731  1
  O  O6  1  0.789992  0.560554  0.104270  1
  O  O7  1  0.210008  0.939445  0.104270  1
  Mn  Mn8  1  0.500000  0.750000  0.324381  1
  Mn  Mn9  1  0.499999  0.250000  0.675618  1
  W  W10  1  0.000001  0.749999  0.827083  1
  W  W11  1  0.000000  0.250000  0.172916  1
