# generated using pymatgen
data_NbN
_symmetry_space_group_name_H-M   'P 1'
_cell_length_a   2.99382862
_cell_length_b   2.99382862
_cell_length_c   11.44094820
_cell_angle_alpha   90.00000000
_cell_angle_beta   90.00000000
_cell_angle_gamma   120.00000000
_symmetry_Int_Tables_number   1
_chemical_formula_structural   NbN
_chemical_formula_sum   'Nb4 N4'
_cell_volume   88.80686162
_cell_formula_units_Z   4
loop_
 _symmetry_equiv_pos_site_id
 _symmetry_equiv_pos_as_xyz
  1  'x, y, z'
loop_
 _atom_site_type_symbol
 _atom_site_label
 _atom_site_symmetry_multiplicity
 _atom_site_fract_x
 _atom_site_fract_y
 _atom_site_fract_z
 _atom_site_occupancy
  N  N0  1  0.666667  0.333333  0.250000  1
  N  N1  1  0.333333  0.666667  0.750000  1
  N  N2  1  0.000000  0.000000  0.500000  1
  N  N3  1  0.000000  0.000000  0.000000  1
  Nb  Nb4  1  0.333333  0.666667  0.377297  1
  Nb  Nb5  1  0.666667  0.333333  0.877297  1
  Nb  Nb6  1  0.666667  0.333333  0.622703  1
  Nb  Nb7  1  0.333333  0.666667  0.122703  1
