# generated using pymatgen
data_KGe2N3
_symmetry_space_group_name_H-M   'P 1'
_cell_length_a   5.88278979
_cell_length_b   6.03362075
_cell_length_c   5.32488092
_cell_angle_alpha   90.00000000
_cell_angle_beta   90.00000000
_cell_angle_gamma   120.85183252
_symmetry_Int_Tables_number   1
_chemical_formula_structural   KGe2N3
_chemical_formula_sum   'K2 Ge4 N6'
_cell_volume   162.25933047
_cell_formula_units_Z   2
loop_
 _symmetry_equiv_pos_site_id
 _symmetry_equiv_pos_as_xyz
  1  'x, y, z'
loop_
 _atom_site_type_symbol
 _atom_site_label
 _atom_site_symmetry_multiplicity
 _atom_site_fract_x
 _atom_site_fract_y
 _atom_site_fract_z
 _atom_site_occupancy
  K  K0  1  0.000000  0.654977  0.473851  1
  K  K1  1  1.000000  0.345023  0.973851  1
  Ge  Ge2  1  0.345911  0.316496  0.495205  1
  Ge  Ge3  1  0.654089  0.970585  0.495205  1
  Ge  Ge4  1  0.654089  0.683504  0.995205  1
  Ge  Ge5  1  0.345911  0.029415  0.995205  1
  N  N6  1  0.468776  0.353348  0.832411  1
  N  N7  1  0.531224  0.884571  0.832411  1
  N  N8  1  0.531224  0.646652  0.332411  1
  N  N9  1  0.468776  0.115429  0.332411  1
  N  N10  1  0.000000  0.793411  0.958918  1
  N  N11  1  1.000000  0.206589  0.458918  1
