# generated using pymatgen
data_Ca7SiN6
_symmetry_space_group_name_H-M   'P 1'
_cell_length_a   6.18145168
_cell_length_b   10.82852558
_cell_length_c   13.00801389
_cell_angle_alpha   90.00000000
_cell_angle_beta   90.00000000
_cell_angle_gamma   90.00000000
_symmetry_Int_Tables_number   1
_chemical_formula_structural   Ca7SiN6
_chemical_formula_sum   'Ca28 Si4 N24'
_cell_volume   870.70451710
_cell_formula_units_Z   4
loop_
 _symmetry_equiv_pos_site_id
 _symmetry_equiv_pos_as_xyz
  1  'x, y, z'
loop_
 _atom_site_type_symbol
 _atom_site_label
 _atom_site_symmetry_multiplicity
 _atom_site_fract_x
 _atom_site_fract_y
 _atom_site_fract_z
 _atom_site_occupancy
  Ca  Ca0  1  0.264754  0.961577  0.979714  1
  Ca  Ca1  1  0.235246  0.538423  0.479714  1
  Ca  Ca2  1  0.235246  0.461577  0.020286  1
  Ca  Ca3  1  0.264754  0.038423  0.520286  1
  Ca  Ca4  1  0.735246  0.038423  0.020286  1
  Ca  Ca5  1  0.764754  0.461577  0.520286  1
  Ca  Ca6  1  0.764754  0.538423  0.979714  1
  Ca  Ca7  1  0.735246  0.961577  0.479714  1
  Ca  Ca8  1  0.143820  0.774407  0.625344  1
  Ca  Ca9  1  0.356180  0.725593  0.125344  1
  Ca  Ca10  1  0.356180  0.274407  0.374656  1
  Ca  Ca11  1  0.143820  0.225593  0.874656  1
  Ca  Ca12  1  0.856180  0.225593  0.374656  1
  Ca  Ca13  1  0.643820  0.274407  0.874656  1
  Ca  Ca14  1  0.643820  0.725593  0.625344  1
  Ca  Ca15  1  0.856180  0.774407  0.125344  1
  Ca  Ca16  1  0.388318  0.705653  0.878527  1
  Ca  Ca17  1  0.111682  0.794347  0.378527  1
  Ca  Ca18  1  0.111682  0.205653  0.121473  1
  Ca  Ca19  1  0.388318  0.294347  0.621473  1
  Ca  Ca20  1  0.611682  0.294347  0.121473  1
  Ca  Ca21  1  0.888318  0.205653  0.621473  1
  Ca  Ca22  1  0.888318  0.794347  0.878527  1
  Ca  Ca23  1  0.611682  0.705653  0.378527  1
  Ca  Ca24  1  0.557111  0.000000  0.750000  1
  Ca  Ca25  1  0.942889  0.500000  0.250000  1
  Ca  Ca26  1  0.442889  0.000000  0.250000  1
  Ca  Ca27  1  0.057111  0.500000  0.750000  1
  Si  Si28  1  0.066998  0.000000  0.750000  1
  Si  Si29  1  0.433002  0.500000  0.250000  1
  Si  Si30  1  0.933002  0.000000  0.250000  1
  Si  Si31  1  0.566998  0.500000  0.750000  1
  N  N32  1  0.236314  0.874000  0.790869  1
  N  N33  1  0.263686  0.626000  0.290869  1
  N  N34  1  0.263686  0.374000  0.209131  1
  N  N35  1  0.236314  0.126000  0.709131  1
  N  N36  1  0.763686  0.126000  0.209131  1
  N  N37  1  0.736314  0.374000  0.709131  1
  N  N38  1  0.736314  0.626000  0.790869  1
  N  N39  1  0.763686  0.874000  0.290869  1
  N  N40  1  0.407895  0.833421  0.503234  1
  N  N41  1  0.092105  0.666579  0.003234  1
  N  N42  1  0.092105  0.333421  0.496766  1
  N  N43  1  0.407895  0.166579  0.996766  1
  N  N44  1  0.592105  0.166579  0.496766  1
  N  N45  1  0.907895  0.333421  0.996766  1
  N  N46  1  0.907895  0.666579  0.503234  1
  N  N47  1  0.592105  0.833421  0.003234  1
  N  N48  1  0.399893  0.545361  0.645077  1
  N  N49  1  0.100107  0.954639  0.145077  1
  N  N50  1  0.100107  0.045361  0.354923  1
  N  N51  1  0.399893  0.454639  0.854923  1
  N  N52  1  0.600107  0.454639  0.354923  1
  N  N53  1  0.899893  0.045361  0.854923  1
  N  N54  1  0.899893  0.954639  0.645077  1
  N  N55  1  0.600107  0.545361  0.145077  1
