# generated using pymatgen
data_Li2PNO2
_symmetry_space_group_name_H-M   'P 1'
_cell_length_a   4.75604931
_cell_length_b   5.32386822
_cell_length_c   5.32386822
_cell_angle_alpha   61.62283018
_cell_angle_beta   90.00000000
_cell_angle_gamma   90.00000000
_symmetry_Int_Tables_number   1
_chemical_formula_structural   Li2PNO2
_chemical_formula_sum   'Li4 P2 N2 O4'
_cell_volume   118.60518287
_cell_formula_units_Z   2
loop_
 _symmetry_equiv_pos_site_id
 _symmetry_equiv_pos_as_xyz
  1  'x, y, z'
loop_
 _atom_site_type_symbol
 _atom_site_label
 _atom_site_symmetry_multiplicity
 _atom_site_fract_x
 _atom_site_fract_y
 _atom_site_fract_z
 _atom_site_occupancy
  Li  Li0  1  0.498412  0.006680  0.325548  1
  Li  Li1  1  0.498412  0.674452  0.993320  1
  Li  Li2  1  0.998412  0.993320  0.674452  1
  Li  Li3  1  0.998412  0.325548  0.006680  1
  P  P4  1  0.500902  0.345706  0.654294  1
  P  P5  1  0.000902  0.654294  0.345706  1
  N  N6  1  0.658342  0.613103  0.386897  1
  N  N7  1  0.158342  0.386897  0.613103  1
  O  O8  1  0.581466  0.332737  0.944970  1
  O  O9  1  0.581466  0.055030  0.667263  1
  O  O10  1  0.081466  0.667263  0.055030  1
  O  O11  1  0.081466  0.944970  0.332737  1
