# generated using pymatgen
data_BaCoS2
_symmetry_space_group_name_H-M   'P 1'
_cell_length_a   4.37830470
_cell_length_b   4.37830470
_cell_length_c   8.94423984
_cell_angle_alpha   90.00000000
_cell_angle_beta   90.00000000
_cell_angle_gamma   90.00000000
_symmetry_Int_Tables_number   1
_chemical_formula_structural   BaCoS2
_chemical_formula_sum   'Ba2 Co2 S4'
_cell_volume   171.45707113
_cell_formula_units_Z   2
loop_
 _symmetry_equiv_pos_site_id
 _symmetry_equiv_pos_as_xyz
  1  'x, y, z'
loop_
 _atom_site_type_symbol
 _atom_site_label
 _atom_site_symmetry_multiplicity
 _atom_site_fract_x
 _atom_site_fract_y
 _atom_site_fract_z
 _atom_site_occupancy
  S  S0  1  0.250000  0.750000  0.000000  1
  S  S1  1  0.750000  0.250000  0.000000  1
  S  S2  1  0.250000  0.250000  0.341737  1
  S  S3  1  0.750000  0.750000  0.658263  1
  Co  Co4  1  0.250000  0.250000  0.088699  1
  Co  Co5  1  0.750000  0.750000  0.911301  1
  Ba  Ba6  1  0.750000  0.750000  0.299764  1
  Ba  Ba7  1  0.250000  0.250000  0.700236  1
