# generated using pymatgen
data_Ca2CoN2
_symmetry_space_group_name_H-M   'P 1'
_cell_length_a   5.04237674
_cell_length_b   5.03856953
_cell_length_c   6.60160856
_cell_angle_alpha   90.00000000
_cell_angle_beta   112.49782870
_cell_angle_gamma   90.00000000
_symmetry_Int_Tables_number   1
_chemical_formula_structural   Ca2CoN2
_chemical_formula_sum   'Ca4 Co2 N4'
_cell_volume   154.95817021
_cell_formula_units_Z   2
loop_
 _symmetry_equiv_pos_site_id
 _symmetry_equiv_pos_as_xyz
  1  'x, y, z'
loop_
 _atom_site_type_symbol
 _atom_site_label
 _atom_site_symmetry_multiplicity
 _atom_site_fract_x
 _atom_site_fract_y
 _atom_site_fract_z
 _atom_site_occupancy
  Ca  Ca0  1  0.651938  0.000000  0.803941  1
  Ca  Ca1  1  0.348062  -0.000000  0.196059  1
  Ca  Ca2  1  0.151938  0.500000  0.803941  1
  Ca  Ca3  1  0.848062  0.500000  0.196059  1
  Co  Co4  1  0.500000  0.500000  0.500000  1
  Co  Co5  1  0.000000  0.000000  0.500000  1
  N  N6  1  0.855498  0.000000  0.211033  1
  N  N7  1  0.144502  0.000000  0.788967  1
  N  N8  1  0.355498  0.500000  0.211033  1
  N  N9  1  0.644502  0.500000  0.788967  1
