# generated using pymatgen
data_AlTlO2
_symmetry_space_group_name_H-M   'P 1'
_cell_length_a   5.71712776
_cell_length_b   5.71712776
_cell_length_c   5.71712777
_cell_angle_alpha   59.98759963
_cell_angle_beta   59.98759959
_cell_angle_gamma   59.98759966
_symmetry_Int_Tables_number   1
_chemical_formula_structural   AlTlO2
_chemical_formula_sum   'Al2 Tl2 O4'
_cell_volume   132.09809910
_cell_formula_units_Z   2
loop_
 _symmetry_equiv_pos_site_id
 _symmetry_equiv_pos_as_xyz
  1  'x, y, z'
loop_
 _atom_site_type_symbol
 _atom_site_label
 _atom_site_symmetry_multiplicity
 _atom_site_fract_x
 _atom_site_fract_y
 _atom_site_fract_z
 _atom_site_occupancy
  O  O0  1  0.500000  0.000000  0.500000  1
  O  O1  1  0.000000  0.500000  0.500000  1
  O  O2  1  0.500000  0.500000  0.500000  1
  O  O3  1  0.500000  0.500000  0.000000  1
  Al  Al4  1  0.375020  0.375020  0.375020  1
  Al  Al5  1  0.624980  0.624980  0.624980  1
  Tl  Tl6  1  0.875343  0.875343  0.875343  1
  Tl  Tl7  1  0.124657  0.124657  0.124657  1
