# generated using pymatgen
data_YSn2
_symmetry_space_group_name_H-M   'P 1'
_cell_length_a   4.36651202
_cell_length_b   4.43998161
_cell_length_c   8.51665087
_cell_angle_alpha   105.10951061
_cell_angle_beta   90.00000000
_cell_angle_gamma   90.00000000
_symmetry_Int_Tables_number   1
_chemical_formula_structural   YSn2
_chemical_formula_sum   'Y2 Sn4'
_cell_volume   159.40619114
_cell_formula_units_Z   2
loop_
 _symmetry_equiv_pos_site_id
 _symmetry_equiv_pos_as_xyz
  1  'x, y, z'
loop_
 _atom_site_type_symbol
 _atom_site_label
 _atom_site_symmetry_multiplicity
 _atom_site_fract_x
 _atom_site_fract_y
 _atom_site_fract_z
 _atom_site_occupancy
  Y  Y0  1  0.750000  0.098786  0.197572  1
  Y  Y1  1  0.250000  0.901214  0.802428  1
  Sn  Sn2  1  0.750000  0.436536  0.873071  1
  Sn  Sn3  1  0.250000  0.563464  0.126929  1
  Sn  Sn4  1  0.750000  0.749250  0.498501  1
  Sn  Sn5  1  0.250000  0.250750  0.501499  1
