# generated using pymatgen
data_ZrMoP
_symmetry_space_group_name_H-M   'P 1'
_cell_length_a   6.96789334
_cell_length_b   6.96789334
_cell_length_c   3.45642623
_cell_angle_alpha   90.00000000
_cell_angle_beta   90.00000000
_cell_angle_gamma   120.00000001
_symmetry_Int_Tables_number   1
_chemical_formula_structural   ZrMoP
_chemical_formula_sum   'Zr3 Mo3 P3'
_cell_volume   145.33188683
_cell_formula_units_Z   3
loop_
 _symmetry_equiv_pos_site_id
 _symmetry_equiv_pos_as_xyz
  1  'x, y, z'
loop_
 _atom_site_type_symbol
 _atom_site_label
 _atom_site_symmetry_multiplicity
 _atom_site_fract_x
 _atom_site_fract_y
 _atom_site_fract_z
 _atom_site_occupancy
  P  P0  1  0.666667  0.333333  0.000000  1
  P  P1  1  0.333333  0.666667  0.000000  1
  P  P2  1  0.000000  0.000000  0.500000  1
  Zr  Zr3  1  0.404086  0.404086  0.500000  1
  Zr  Zr4  1  0.595914  0.000000  0.500000  1
  Zr  Zr5  1  0.000000  0.595914  0.500000  1
  Mo  Mo6  1  0.000000  0.251333  0.000000  1
  Mo  Mo7  1  0.251333  0.000000  0.000000  1
  Mo  Mo8  1  0.748667  0.748667  0.000000  1
