# generated using pymatgen
data_LiFeP
_symmetry_space_group_name_H-M   'P 1'
_cell_length_a   2.85131522
_cell_length_b   2.85131522
_cell_length_c   4.60041196
_cell_angle_alpha   108.05307238
_cell_angle_beta   108.05307238
_cell_angle_gamma   90.00000000
_symmetry_Int_Tables_number   1
_chemical_formula_structural   LiFeP
_chemical_formula_sum   'Li1 Fe1 P1'
_cell_volume   33.61810015
_cell_formula_units_Z   1
loop_
 _symmetry_equiv_pos_site_id
 _symmetry_equiv_pos_as_xyz
  1  'x, y, z'
loop_
 _atom_site_type_symbol
 _atom_site_label
 _atom_site_symmetry_multiplicity
 _atom_site_fract_x
 _atom_site_fract_y
 _atom_site_fract_z
 _atom_site_occupancy
  Li  Li0  1  0.531512  0.531512  0.063023  1
  Fe  Fe1  1  0.225363  0.225363  0.450726  1
  P  P2  1  0.848725  0.848725  0.697451  1
