# generated using pymatgen
data_Sc2Co3Si
_symmetry_space_group_name_H-M   'P 1'
_cell_length_a   5.02324528
_cell_length_b   5.02324528
_cell_length_c   7.47918553
_cell_angle_alpha   90.00000000
_cell_angle_beta   90.00000000
_cell_angle_gamma   120.00000001
_symmetry_Int_Tables_number   1
_chemical_formula_structural   Sc2Co3Si
_chemical_formula_sum   'Sc4 Co6 Si2'
_cell_volume   163.43825160
_cell_formula_units_Z   2
loop_
 _symmetry_equiv_pos_site_id
 _symmetry_equiv_pos_as_xyz
  1  'x, y, z'
loop_
 _atom_site_type_symbol
 _atom_site_label
 _atom_site_symmetry_multiplicity
 _atom_site_fract_x
 _atom_site_fract_y
 _atom_site_fract_z
 _atom_site_occupancy
  Si  Si0  1  0.000000  0.000000  0.500000  1
  Si  Si1  1  0.000000  0.000000  0.000000  1
  Sc  Sc2  1  0.333333  0.666667  0.560832  1
  Sc  Sc3  1  0.666667  0.333333  0.439168  1
  Sc  Sc4  1  0.666667  0.333333  0.060832  1
  Sc  Sc5  1  0.333333  0.666667  0.939168  1
  Co  Co6  1  0.829153  0.170847  0.750000  1
  Co  Co7  1  0.658306  0.829153  0.250000  1
  Co  Co8  1  0.170847  0.829153  0.250000  1
  Co  Co9  1  0.829153  0.658306  0.750000  1
  Co  Co10  1  0.170847  0.341694  0.250000  1
  Co  Co11  1  0.341694  0.170847  0.750000  1
