# generated using pymatgen
data_Ni2B
_symmetry_space_group_name_H-M   'P 1'
_cell_length_a   4.10473041
_cell_length_b   4.10473041
_cell_length_c   4.10473041
_cell_angle_alpha   105.66831772
_cell_angle_beta   105.66831769
_cell_angle_gamma   117.37832242
_symmetry_Int_Tables_number   1
_chemical_formula_structural   Ni2B
_chemical_formula_sum   'Ni4 B2'
_cell_volume   52.46901306
_cell_formula_units_Z   2
loop_
 _symmetry_equiv_pos_site_id
 _symmetry_equiv_pos_as_xyz
  1  'x, y, z'
loop_
 _atom_site_type_symbol
 _atom_site_label
 _atom_site_symmetry_multiplicity
 _atom_site_fract_x
 _atom_site_fract_y
 _atom_site_fract_z
 _atom_site_occupancy
  B  B0  1  0.500000  0.000000  0.500000  1
  B  B1  1  0.000000  0.500000  0.500000  1
  Ni  Ni2  1  0.919589  0.580411  0.000000  1
  Ni  Ni3  1  0.080411  0.080411  0.660822  1
  Ni  Ni4  1  0.580411  0.919589  0.000000  1
  Ni  Ni5  1  0.419589  0.419589  0.339178  1
