# generated using pymatgen
data_TlBiTe2
_symmetry_space_group_name_H-M   'P 1'
_cell_length_a   24.26372680
_cell_length_b   9.45969877
_cell_length_c   12.34757968
_cell_angle_alpha   160.93480610
_cell_angle_beta   169.27434331
_cell_angle_gamma   15.85560771
_symmetry_Int_Tables_number   1
_chemical_formula_structural   TlBiTe2
_chemical_formula_sum   'Tl1 Bi1 Te2'
_cell_volume   144.10576904
_cell_formula_units_Z   1
loop_
 _symmetry_equiv_pos_site_id
 _symmetry_equiv_pos_as_xyz
  1  'x, y, z'
loop_
 _atom_site_type_symbol
 _atom_site_label
 _atom_site_symmetry_multiplicity
 _atom_site_fract_x
 _atom_site_fract_y
 _atom_site_fract_z
 _atom_site_occupancy
  Tl  Tl0  1  0.000000  0.000000  0.000000  1
  Bi  Bi1  1  0.000000  0.500000  0.000000  1
  Te  Te2  1  0.519718  0.684152  0.000000  1
  Te  Te3  1  0.480283  0.315848  0.000000  1
