# generated using pymatgen
data_Ca(Cu2As)2
_symmetry_space_group_name_H-M   'P 1'
_cell_length_a   7.91768171
_cell_length_b   7.91768174
_cell_length_c   7.91768218
_cell_angle_alpha   30.47895988
_cell_angle_beta   30.47895947
_cell_angle_gamma   30.47895675
_symmetry_Int_Tables_number   1
_chemical_formula_structural   Ca(Cu2As)2
_chemical_formula_sum   'Ca1 Cu4 As2'
_cell_volume   113.19510284
_cell_formula_units_Z   1
loop_
 _symmetry_equiv_pos_site_id
 _symmetry_equiv_pos_as_xyz
  1  'x, y, z'
loop_
 _atom_site_type_symbol
 _atom_site_label
 _atom_site_symmetry_multiplicity
 _atom_site_fract_x
 _atom_site_fract_y
 _atom_site_fract_z
 _atom_site_occupancy
  Ca  Ca0  1  0.000000  0.000000  0.000000  1
  As  As1  1  0.253281  0.253281  0.253281  1
  As  As2  1  0.746719  0.746719  0.746719  1
  Cu  Cu3  1  0.144318  0.144318  0.144318  1
  Cu  Cu4  1  0.855682  0.855682  0.855682  1
  Cu  Cu5  1  0.436764  0.436764  0.436764  1
  Cu  Cu6  1  0.563236  0.563236  0.563236  1
