# generated using pymatgen
data_Ni2P
_symmetry_space_group_name_H-M   'P 1'
_cell_length_a   5.86475836
_cell_length_b   5.86475850
_cell_length_c   3.35964119
_cell_angle_alpha   90.00000000
_cell_angle_beta   90.00000000
_cell_angle_gamma   119.99999920
_symmetry_Int_Tables_number   1
_chemical_formula_structural   Ni2P
_chemical_formula_sum   'Ni6 P3'
_cell_volume   100.07458293
_cell_formula_units_Z   3
loop_
 _symmetry_equiv_pos_site_id
 _symmetry_equiv_pos_as_xyz
  1  'x, y, z'
loop_
 _atom_site_type_symbol
 _atom_site_label
 _atom_site_symmetry_multiplicity
 _atom_site_fract_x
 _atom_site_fract_y
 _atom_site_fract_z
 _atom_site_occupancy
  Ni  Ni0  1  0.600151  0.000000  0.500000  1
  Ni  Ni1  1  1.000000  0.600151  0.500000  1
  Ni  Ni2  1  0.740347  0.740347  0.000000  1
  Ni  Ni3  1  1.000000  0.259653  0.000000  1
  Ni  Ni4  1  0.399849  0.399849  0.500000  1
  Ni  Ni5  1  0.259653  0.000000  0.000000  1
  P  P6  1  0.333333  0.666667  0.000000  1
  P  P7  1  0.000000  0.000000  0.500000  1
  P  P8  1  0.666667  0.333333  0.000000  1
