# generated using pymatgen
data_Pb(NO3)2
_symmetry_space_group_name_H-M   'P 1'
_cell_length_a   7.97707208
_cell_length_b   7.97707208
_cell_length_c   7.97707208
_cell_angle_alpha   90.00000000
_cell_angle_beta   90.00000000
_cell_angle_gamma   90.00000000
_symmetry_Int_Tables_number   1
_chemical_formula_structural   Pb(NO3)2
_chemical_formula_sum   'Pb4 N8 O24'
_cell_volume   507.61044386
_cell_formula_units_Z   4
loop_
 _symmetry_equiv_pos_site_id
 _symmetry_equiv_pos_as_xyz
  1  'x, y, z'
loop_
 _atom_site_type_symbol
 _atom_site_label
 _atom_site_symmetry_multiplicity
 _atom_site_fract_x
 _atom_site_fract_y
 _atom_site_fract_z
 _atom_site_occupancy
  Pb  Pb0  1  0.500000  0.500000  0.000000  1
  Pb  Pb1  1  0.500000  0.000000  0.500000  1
  Pb  Pb2  1  0.000000  0.500000  0.500000  1
  Pb  Pb3  1  0.000000  0.000000  0.000000  1
  N  N4  1  0.646514  0.646514  0.646514  1
  N  N5  1  0.353486  0.146514  0.853486  1
  N  N6  1  0.146514  0.853486  0.353486  1
  N  N7  1  0.853486  0.353486  0.146514  1
  N  N8  1  0.353486  0.353486  0.353486  1
  N  N9  1  0.646514  0.853486  0.146514  1
  N  N10  1  0.853486  0.146514  0.646514  1
  N  N11  1  0.146514  0.646514  0.853486  1
  O  O12  1  0.794352  0.017023  0.717357  1
  O  O13  1  0.217357  0.794352  0.482977  1
  O  O14  1  0.782643  0.294352  0.017023  1
  O  O15  1  0.294352  0.017023  0.782643  1
  O  O16  1  0.705648  0.517023  0.717357  1
  O  O17  1  0.717357  0.794352  0.017023  1
  O  O18  1  0.982977  0.282643  0.205648  1
  O  O19  1  0.205648  0.517023  0.782643  1
  O  O20  1  0.217357  0.705648  0.982977  1
  O  O21  1  0.982977  0.217357  0.705648  1
  O  O22  1  0.517023  0.717357  0.705648  1
  O  O23  1  0.705648  0.982977  0.217357  1
  O  O24  1  0.017023  0.717357  0.794352  1
  O  O25  1  0.017023  0.782643  0.294352  1
  O  O26  1  0.517023  0.782643  0.205648  1
  O  O27  1  0.282643  0.294352  0.482977  1
  O  O28  1  0.294352  0.482977  0.282643  1
  O  O29  1  0.794352  0.482977  0.217357  1
  O  O30  1  0.782643  0.205648  0.517023  1
  O  O31  1  0.482977  0.282643  0.294352  1
  O  O32  1  0.482977  0.217357  0.794352  1
  O  O33  1  0.205648  0.982977  0.282643  1
  O  O34  1  0.717357  0.705648  0.517023  1
  O  O35  1  0.282643  0.205648  0.982977  1
