# generated using pymatgen
data_YCu2
_symmetry_space_group_name_H-M   'P 1'
_cell_length_a   4.28325010
_cell_length_b   5.45618241
_cell_length_c   5.45618240
_cell_angle_alpha   77.41255780
_cell_angle_beta   66.88901498
_cell_angle_gamma   66.88901495
_symmetry_Int_Tables_number   1
_chemical_formula_structural   YCu2
_chemical_formula_sum   'Y2 Cu4'
_cell_volume   107.55884551
_cell_formula_units_Z   2
loop_
 _symmetry_equiv_pos_site_id
 _symmetry_equiv_pos_as_xyz
  1  'x, y, z'
loop_
 _atom_site_type_symbol
 _atom_site_label
 _atom_site_symmetry_multiplicity
 _atom_site_fract_x
 _atom_site_fract_y
 _atom_site_fract_z
 _atom_site_occupancy
  Cu  Cu0  1  0.835436  0.113009  0.216120  1
  Cu  Cu1  1  0.164564  0.886991  0.783880  1
  Cu  Cu2  1  0.164564  0.283880  0.386991  1
  Cu  Cu3  1  0.835436  0.716120  0.613009  1
  Y  Y4  1  0.455338  0.294662  0.794662  1
  Y  Y5  1  0.544662  0.705338  0.205338  1
