# generated using pymatgen
data_Cs2Mn3S4
_symmetry_space_group_name_H-M   'P 1'
_cell_length_a   6.12711582
_cell_length_b   9.69763779
_cell_length_c   9.69763778
_cell_angle_alpha   74.03957646
_cell_angle_beta   71.58438385
_cell_angle_gamma   71.58438386
_symmetry_Int_Tables_number   1
_chemical_formula_structural   Cs2Mn3S4
_chemical_formula_sum   'Cs4 Mn6 S8'
_cell_volume   508.79822104
_cell_formula_units_Z   2
loop_
 _symmetry_equiv_pos_site_id
 _symmetry_equiv_pos_as_xyz
  1  'x, y, z'
loop_
 _atom_site_type_symbol
 _atom_site_label
 _atom_site_symmetry_multiplicity
 _atom_site_fract_x
 _atom_site_fract_y
 _atom_site_fract_z
 _atom_site_occupancy
  S  S0  1  0.939806  0.478936  0.208662  1
  S  S1  1  0.127405  0.021064  0.291338  1
  S  S2  1  0.560194  0.291338  0.021064  1
  S  S3  1  0.372595  0.208662  0.478936  1
  S  S4  1  0.439806  0.708662  0.978936  1
  S  S5  1  0.627405  0.791338  0.521064  1
  S  S6  1  0.872595  0.978936  0.708662  1
  S  S7  1  0.060194  0.521064  0.791338  1
  Mn  Mn8  1  0.250000  0.250000  0.250000  1
  Mn  Mn9  1  0.750000  0.750000  0.750000  1
  Mn  Mn10  1  0.750000  0.475129  0.024871  1
  Mn  Mn11  1  0.750000  0.024871  0.475129  1
  Mn  Mn12  1  0.250000  0.975129  0.524871  1
  Mn  Mn13  1  0.250000  0.524871  0.975129  1
  Cs  Cs14  1  0.237171  0.120201  0.879799  1
  Cs  Cs15  1  0.737171  0.379799  0.620201  1
  Cs  Cs16  1  0.262829  0.620201  0.379799  1
  Cs  Cs17  1  0.762829  0.879799  0.120201  1
