# generated using pymatgen
data_Li2Si
_symmetry_space_group_name_H-M   'P 1'
_cell_length_a   4.33885344
_cell_length_b   4.34895385
_cell_length_c   6.63908859
_cell_angle_alpha   70.86294917
_cell_angle_beta   70.92741361
_cell_angle_gamma   60.07679782
_symmetry_Int_Tables_number   1
_chemical_formula_structural   Li2Si
_chemical_formula_sum   'Li4 Si2'
_cell_volume   100.51693832
_cell_formula_units_Z   2
loop_
 _symmetry_equiv_pos_site_id
 _symmetry_equiv_pos_as_xyz
  1  'x, y, z'
loop_
 _atom_site_type_symbol
 _atom_site_label
 _atom_site_symmetry_multiplicity
 _atom_site_fract_x
 _atom_site_fract_y
 _atom_site_fract_z
 _atom_site_occupancy
  Li  Li0  1  0.644097  0.644241  0.067565  1
  Li  Li1  1  0.355903  0.355759  0.932435  1
  Li  Li2  1  0.204887  0.206441  0.383785  1
  Li  Li3  1  0.795113  0.793559  0.616215  1
  Si  Si4  1  0.938011  0.938313  0.185665  1
  Si  Si5  1  0.061989  0.061687  0.814335  1
