# generated using pymatgen
data_MgInCu4
_symmetry_space_group_name_H-M   'P 1'
_cell_length_a   4.99644176
_cell_length_b   4.99644205
_cell_length_c   4.99644220
_cell_angle_alpha   60.00000564
_cell_angle_beta   60.00000368
_cell_angle_gamma   60.00000819
_symmetry_Int_Tables_number   1
_chemical_formula_structural   MgInCu4
_chemical_formula_sum   'Mg1 In1 Cu4'
_cell_volume   88.19980225
_cell_formula_units_Z   1
loop_
 _symmetry_equiv_pos_site_id
 _symmetry_equiv_pos_as_xyz
  1  'x, y, z'
loop_
 _atom_site_type_symbol
 _atom_site_label
 _atom_site_symmetry_multiplicity
 _atom_site_fract_x
 _atom_site_fract_y
 _atom_site_fract_z
 _atom_site_occupancy
  Cu  Cu0  1  0.625282  0.625282  0.625282  1
  Cu  Cu1  1  0.625282  0.625282  0.124155  1
  Cu  Cu2  1  0.124155  0.625282  0.625282  1
  Cu  Cu3  1  0.625282  0.124155  0.625282  1
  In  In4  1  0.250000  0.250000  0.250000  1
  Mg  Mg5  1  0.000000  0.000000  0.000000  1
