# generated using pymatgen
data_Rh3W
_symmetry_space_group_name_H-M   'P 1'
_cell_length_a   5.52748561
_cell_length_b   5.52748604
_cell_length_c   4.38819043
_cell_angle_alpha   90.00000000
_cell_angle_beta   90.00000000
_cell_angle_gamma   119.99999749
_symmetry_Int_Tables_number   1
_chemical_formula_structural   Rh3W
_chemical_formula_sum   'Rh6 W2'
_cell_volume   116.11047016
_cell_formula_units_Z   2
loop_
 _symmetry_equiv_pos_site_id
 _symmetry_equiv_pos_as_xyz
  1  'x, y, z'
loop_
 _atom_site_type_symbol
 _atom_site_label
 _atom_site_symmetry_multiplicity
 _atom_site_fract_x
 _atom_site_fract_y
 _atom_site_fract_z
 _atom_site_occupancy
  Rh  Rh0  1  0.832982  0.665963  0.250000  1
  Rh  Rh1  1  0.167018  0.832982  0.750000  1
  Rh  Rh2  1  0.665963  0.832982  0.750000  1
  Rh  Rh3  1  0.334037  0.167018  0.250000  1
  Rh  Rh4  1  0.832982  0.167018  0.250000  1
  Rh  Rh5  1  0.167018  0.334037  0.750000  1
  W  W6  1  0.333333  0.666667  0.250000  1
  W  W7  1  0.666667  0.333333  0.750000  1
