# generated using pymatgen
data_Ni(RhSe2)2
_symmetry_space_group_name_H-M   'P 1'
_cell_length_a   3.72471466
_cell_length_b   6.40191070
_cell_length_c   6.42029271
_cell_angle_alpha   118.25449177
_cell_angle_beta   106.86236158
_cell_angle_gamma   89.99999999
_symmetry_Int_Tables_number   1
_chemical_formula_structural   Ni(RhSe2)2
_chemical_formula_sum   'Ni1 Rh2 Se4'
_cell_volume   127.33133937
_cell_formula_units_Z   1
loop_
 _symmetry_equiv_pos_site_id
 _symmetry_equiv_pos_as_xyz
  1  'x, y, z'
loop_
 _atom_site_type_symbol
 _atom_site_label
 _atom_site_symmetry_multiplicity
 _atom_site_fract_x
 _atom_site_fract_y
 _atom_site_fract_z
 _atom_site_occupancy
  Ni  Ni0  1  0.000000  0.000000  0.000000  1
  Se  Se1  1  0.369048  0.024591  0.738096  1
  Se  Se2  1  0.116397  0.448214  0.232795  1
  Se  Se3  1  0.630952  0.975409  0.261904  1
  Se  Se4  1  0.883603  0.551786  0.767205  1
  Rh  Rh5  1  0.263792  0.282560  0.527585  1
  Rh  Rh6  1  0.736208  0.717440  0.472415  1
