# generated using pymatgen
data_V4GaS8
_symmetry_space_group_name_H-M   'P 1'
_cell_length_a   6.87563253
_cell_length_b   6.87563317
_cell_length_c   6.87563364
_cell_angle_alpha   60.10007779
_cell_angle_beta   60.10007472
_cell_angle_gamma   60.10007250
_symmetry_Int_Tables_number   1
_chemical_formula_structural   V4GaS8
_chemical_formula_sum   'V4 Ga1 S8'
_cell_volume   230.35982514
_cell_formula_units_Z   1
loop_
 _symmetry_equiv_pos_site_id
 _symmetry_equiv_pos_as_xyz
  1  'x, y, z'
loop_
 _atom_site_type_symbol
 _atom_site_label
 _atom_site_symmetry_multiplicity
 _atom_site_fract_x
 _atom_site_fract_y
 _atom_site_fract_z
 _atom_site_occupancy
  V  V0  1  0.393042  0.815153  0.393042  1
  V  V1  1  0.392399  0.392399  0.392399  1
  V  V2  1  0.393042  0.393042  0.815153  1
  V  V3  1  0.815153  0.393042  0.393042  1
  Ga  Ga4  1  0.999049  0.999049  0.999049  1
  S  S5  1  0.135651  0.135651  0.135651  1
  S  S6  1  0.134710  0.588989  0.134710  1
  S  S7  1  0.111465  0.627175  0.627175  1
  S  S8  1  0.588989  0.134710  0.134710  1
  S  S9  1  0.627175  0.111465  0.627175  1
  S  S10  1  0.134710  0.134710  0.588989  1
  S  S11  1  0.627738  0.627738  0.627738  1
  S  S12  1  0.627175  0.627175  0.111465  1
