# generated using pymatgen
data_CrCuS2
_symmetry_space_group_name_H-M   'P 1'
_cell_length_a   6.44747091
_cell_length_b   6.44747058
_cell_length_c   6.44747138
_cell_angle_alpha   31.74480800
_cell_angle_beta   31.74481279
_cell_angle_gamma   31.74481242
_symmetry_Int_Tables_number   1
_chemical_formula_structural   CrCuS2
_chemical_formula_sum   'Cr1 Cu1 S2'
_cell_volume   65.89406886
_cell_formula_units_Z   1
loop_
 _symmetry_equiv_pos_site_id
 _symmetry_equiv_pos_as_xyz
  1  'x, y, z'
loop_
 _atom_site_type_symbol
 _atom_site_label
 _atom_site_symmetry_multiplicity
 _atom_site_fract_x
 _atom_site_fract_y
 _atom_site_fract_z
 _atom_site_occupancy
  Cr  Cr0  1  0.000831  0.000831  0.000831  1
  Cu  Cu1  1  0.854196  0.854196  0.854196  1
  S  S2  1  0.255586  0.255586  0.255586  1
  S  S3  1  0.733986  0.733986  0.733986  1
