# generated using pymatgen
data_LiSi2N3
_symmetry_space_group_name_H-M   'P 1'
_cell_length_a   4.81440275
_cell_length_b   5.33093962
_cell_length_c   5.34965590
_cell_angle_alpha   119.88433471
_cell_angle_beta   90.00000000
_cell_angle_gamma   90.00000000
_symmetry_Int_Tables_number   1
_chemical_formula_structural   LiSi2N3
_chemical_formula_sum   'Li2 Si4 N6'
_cell_volume   119.04404151
_cell_formula_units_Z   2
loop_
 _symmetry_equiv_pos_site_id
 _symmetry_equiv_pos_as_xyz
  1  'x, y, z'
loop_
 _atom_site_type_symbol
 _atom_site_label
 _atom_site_symmetry_multiplicity
 _atom_site_fract_x
 _atom_site_fract_y
 _atom_site_fract_z
 _atom_site_occupancy
  Li  Li0  1  0.000364  0.659843  0.000000  1
  Li  Li1  1  0.500364  0.340157  0.000000  1
  N  N2  1  0.374461  0.940664  0.602956  1
  N  N3  1  0.874461  0.059336  0.397044  1
  N  N4  1  0.934752  0.273692  0.000000  1
  N  N5  1  0.434752  0.726308  0.000000  1
  N  N6  1  0.374461  0.337709  0.397044  1
  N  N7  1  0.874461  0.662291  0.602956  1
  Si  Si8  1  0.013121  0.997214  0.668296  1
  Si  Si9  1  0.513121  0.002786  0.331704  1
  Si  Si10  1  0.513121  0.671081  0.668296  1
  Si  Si11  1  0.013121  0.328919  0.331704  1
