# generated using pymatgen
data_CaInPt
_symmetry_space_group_name_H-M   'P 1'
_cell_length_a   4.41417721
_cell_length_b   7.33792148
_cell_length_c   8.47812917
_cell_angle_alpha   90.00000000
_cell_angle_beta   90.00000000
_cell_angle_gamma   90.00000000
_symmetry_Int_Tables_number   1
_chemical_formula_structural   CaInPt
_chemical_formula_sum   'Ca4 In4 Pt4'
_cell_volume   274.61411345
_cell_formula_units_Z   4
loop_
 _symmetry_equiv_pos_site_id
 _symmetry_equiv_pos_as_xyz
  1  'x, y, z'
loop_
 _atom_site_type_symbol
 _atom_site_label
 _atom_site_symmetry_multiplicity
 _atom_site_fract_x
 _atom_site_fract_y
 _atom_site_fract_z
 _atom_site_occupancy
  Ca  Ca0  1  0.250000  0.029326  0.678103  1
  Ca  Ca1  1  0.250000  0.529326  0.821897  1
  Ca  Ca2  1  0.750000  0.970674  0.321897  1
  Ca  Ca3  1  0.750000  0.470674  0.178103  1
  In  In4  1  0.750000  0.350826  0.565352  1
  In  In5  1  0.250000  0.149174  0.065352  1
  In  In6  1  0.750000  0.850826  0.934648  1
  In  In7  1  0.250000  0.649174  0.434648  1
  Pt  Pt8  1  0.750000  0.230988  0.876032  1
  Pt  Pt9  1  0.750000  0.730988  0.623968  1
  Pt  Pt10  1  0.250000  0.769012  0.123968  1
  Pt  Pt11  1  0.250000  0.269012  0.376032  1
