# generated using pymatgen
data_KNb4O5F
_symmetry_space_group_name_H-M   'P 1'
_cell_length_a   4.20901196
_cell_length_b   4.20901219
_cell_length_c   8.53965997
_cell_angle_alpha   90.00000000
_cell_angle_beta   90.00000000
_cell_angle_gamma   90.00000000
_symmetry_Int_Tables_number   1
_chemical_formula_structural   KNb4O5F
_chemical_formula_sum   'K1 Nb4 O5 F1'
_cell_volume   151.28675991
_cell_formula_units_Z   1
loop_
 _symmetry_equiv_pos_site_id
 _symmetry_equiv_pos_as_xyz
  1  'x, y, z'
loop_
 _atom_site_type_symbol
 _atom_site_label
 _atom_site_symmetry_multiplicity
 _atom_site_fract_x
 _atom_site_fract_y
 _atom_site_fract_z
 _atom_site_occupancy
  O  O0  1  0.000000  0.500000  0.248605  1
  O  O1  1  0.000000  0.500000  0.751389  1
  O  O2  1  0.500000  0.000000  0.248604  1
  Nb  Nb3  1  0.500000  0.500000  0.236303  1
  O  O4  1  0.000000  0.000000  -0.000004  1
  O  O5  1  0.500000  0.000000  0.751388  1
  Nb  Nb6  1  0.500000  0.500000  0.763691  1
  Nb  Nb7  1  0.500000  0.000000  1.000007  1
  Nb  Nb8  1  0.000000  0.500000  1.000001  1
  K  K9  1  0.000000  0.000000  0.500017  1
  F  F10  1  0.500000  0.500000  0.499998  1
