# generated using pymatgen
data_Ba2CuBrO2
_symmetry_space_group_name_H-M   'P 1'
_cell_length_a   10.18105239
_cell_length_b   10.18105266
_cell_length_c   10.18105235
_cell_angle_alpha   24.63932824
_cell_angle_beta   24.63932483
_cell_angle_gamma   24.63932771
_symmetry_Int_Tables_number   1
_chemical_formula_structural   Ba2CuBrO2
_chemical_formula_sum   'Ba2 Cu1 Br1 O2'
_cell_volume   161.29466320
_cell_formula_units_Z   1
loop_
 _symmetry_equiv_pos_site_id
 _symmetry_equiv_pos_as_xyz
  1  'x, y, z'
loop_
 _atom_site_type_symbol
 _atom_site_label
 _atom_site_symmetry_multiplicity
 _atom_site_fract_x
 _atom_site_fract_y
 _atom_site_fract_z
 _atom_site_occupancy
  Ba  Ba0  1  0.748452  0.748452  0.748452  1
  O  O1  1  0.438821  0.438821  0.438821  1
  Cu  Cu2  1  0.500117  0.500117  0.500117  1
  Ba  Ba3  1  0.251448  0.251448  0.251448  1
  O  O4  1  0.561225  0.561225  0.561225  1
  Br  Br5  1  0.999937  0.999937  0.999937  1
