# generated using pymatgen
data_HfCr2
_symmetry_space_group_name_H-M   'P 1'
_cell_length_a   5.04808868
_cell_length_b   5.04808870
_cell_length_c   8.10041901
_cell_angle_alpha   90.00000000
_cell_angle_beta   90.00000000
_cell_angle_gamma   119.99999987
_symmetry_Int_Tables_number   1
_chemical_formula_structural   HfCr2
_chemical_formula_sum   'Hf4 Cr8'
_cell_volume   178.76894175
_cell_formula_units_Z   4
loop_
 _symmetry_equiv_pos_site_id
 _symmetry_equiv_pos_as_xyz
  1  'x, y, z'
loop_
 _atom_site_type_symbol
 _atom_site_label
 _atom_site_symmetry_multiplicity
 _atom_site_fract_x
 _atom_site_fract_y
 _atom_site_fract_z
 _atom_site_occupancy
  Hf  Hf0  1  0.333333  0.666667  0.439524  1
  Hf  Hf1  1  0.666667  0.333333  0.560476  1
  Hf  Hf2  1  0.666667  0.333333  0.939524  1
  Hf  Hf3  1  0.333333  0.666667  0.060476  1
  Cr  Cr4  1  0.168702  0.337404  0.750000  1
  Cr  Cr5  1  0.168702  0.831298  0.750000  1
  Cr  Cr6  1  0.337404  0.168702  0.250000  1
  Cr  Cr7  1  0.831298  0.662596  0.250000  1
  Cr  Cr8  1  0.662596  0.831298  0.750000  1
  Cr  Cr9  1  0.000000  0.000000  0.000000  1
  Cr  Cr10  1  0.831298  0.168702  0.250000  1
  Cr  Cr11  1  0.000000  0.000000  0.500000  1
