# generated using pymatgen
data_Sc3CoC4
_symmetry_space_group_name_H-M   'P 1'
_cell_length_a   3.43519047
_cell_length_b   4.34342838
_cell_length_c   6.60167203
_cell_angle_alpha   109.20592260
_cell_angle_beta   105.08049312
_cell_angle_gamma   90.00000001
_symmetry_Int_Tables_number   1
_chemical_formula_structural   Sc3CoC4
_chemical_formula_sum   'Sc3 Co1 C4'
_cell_volume   89.41801749
_cell_formula_units_Z   1
loop_
 _symmetry_equiv_pos_site_id
 _symmetry_equiv_pos_as_xyz
  1  'x, y, z'
loop_
 _atom_site_type_symbol
 _atom_site_label
 _atom_site_symmetry_multiplicity
 _atom_site_fract_x
 _atom_site_fract_y
 _atom_site_fract_z
 _atom_site_occupancy
  C  C0  1  0.376541  0.209525  0.753081  1
  C  C1  1  0.623459  0.790475  0.246919  1
  C  C2  1  0.623459  0.456444  0.246919  1
  C  C3  1  0.376541  0.543556  0.753081  1
  Sc  Sc4  1  0.000000  0.500000  0.000000  1
  Sc  Sc5  1  0.187786  0.187786  0.375571  1
  Sc  Sc6  1  0.812214  0.812214  0.624429  1
  Co  Co7  1  0.500000  0.000000  0.000000  1
