# generated using pymatgen
data_Li7MnN4
_symmetry_space_group_name_H-M   'P 1'
_cell_length_a   9.57149617
_cell_length_b   9.57149617
_cell_length_c   9.57149617
_cell_angle_alpha   90.00000000
_cell_angle_beta   90.00000000
_cell_angle_gamma   90.00000000
_symmetry_Int_Tables_number   1
_chemical_formula_structural   Li7MnN4
_chemical_formula_sum   'Li56 Mn8 N32'
_cell_volume   876.87863701
_cell_formula_units_Z   8
loop_
 _symmetry_equiv_pos_site_id
 _symmetry_equiv_pos_as_xyz
  1  'x, y, z'
loop_
 _atom_site_type_symbol
 _atom_site_label
 _atom_site_symmetry_multiplicity
 _atom_site_fract_x
 _atom_site_fract_y
 _atom_site_fract_z
 _atom_site_occupancy
  Li  Li0  1  0.000000  0.500000  0.500000  1
  Li  Li1  1  0.500000  0.000000  0.000000  1
  Li  Li2  1  0.000000  0.000000  0.500000  1
  Li  Li3  1  0.000000  0.500000  0.000000  1
  Li  Li4  1  0.500000  0.000000  0.500000  1
  Li  Li5  1  0.500000  0.500000  0.000000  1
  Li  Li6  1  0.250000  0.000000  0.500000  1
  Li  Li7  1  0.000000  0.500000  0.750000  1
  Li  Li8  1  0.000000  0.500000  0.250000  1
  Li  Li9  1  0.500000  0.250000  0.000000  1
  Li  Li10  1  0.500000  0.750000  0.000000  1
  Li  Li11  1  0.750000  0.000000  0.500000  1
  Li  Li12  1  0.232043  0.232043  0.232043  1
  Li  Li13  1  0.267957  0.732043  0.267957  1
  Li  Li14  1  0.267957  0.267957  0.732043  1
  Li  Li15  1  0.732043  0.267957  0.267957  1
  Li  Li16  1  0.767957  0.767957  0.232043  1
  Li  Li17  1  0.232043  0.767957  0.767957  1
  Li  Li18  1  0.767957  0.232043  0.767957  1
  Li  Li19  1  0.732043  0.732043  0.732043  1
  Li  Li20  1  0.251091  0.238768  0.981701  1
  Li  Li21  1  0.248909  0.481701  0.261232  1
  Li  Li22  1  0.248909  0.518299  0.738768  1
  Li  Li23  1  0.518299  0.261232  0.751091  1
  Li  Li24  1  0.481701  0.261232  0.248909  1
  Li  Li25  1  0.738768  0.248909  0.518299  1
  Li  Li26  1  0.261232  0.751091  0.518299  1
  Li  Li27  1  0.981701  0.251091  0.238768  1
  Li  Li28  1  0.238768  0.981701  0.251091  1
  Li  Li29  1  0.761232  0.018299  0.251091  1
  Li  Li30  1  0.981701  0.748909  0.761232  1
  Li  Li31  1  0.761232  0.981701  0.748909  1
  Li  Li32  1  0.018299  0.748909  0.238768  1
  Li  Li33  1  0.018299  0.251091  0.761232  1
  Li  Li34  1  0.238768  0.018299  0.748909  1
  Li  Li35  1  0.251091  0.761232  0.018299  1
  Li  Li36  1  0.748909  0.238768  0.018299  1
  Li  Li37  1  0.748909  0.761232  0.981701  1
  Li  Li38  1  0.261232  0.248909  0.481701  1
  Li  Li39  1  0.738768  0.751091  0.481701  1
  Li  Li40  1  0.518299  0.738768  0.248909  1
  Li  Li41  1  0.481701  0.738768  0.751091  1
  Li  Li42  1  0.751091  0.518299  0.261232  1
  Li  Li43  1  0.751091  0.481701  0.738768  1
  Li  Li44  1  0.262666  0.000000  0.000000  1
  Li  Li45  1  0.237334  0.500000  0.500000  1
  Li  Li46  1  0.500000  0.500000  0.762666  1
  Li  Li47  1  0.500000  0.500000  0.237334  1
  Li  Li48  1  0.500000  0.237334  0.500000  1
  Li  Li49  1  0.500000  0.762666  0.500000  1
  Li  Li50  1  0.000000  0.262666  0.000000  1
  Li  Li51  1  0.000000  0.000000  0.262666  1
  Li  Li52  1  0.000000  0.737334  0.000000  1
  Li  Li53  1  0.000000  0.000000  0.737334  1
  Li  Li54  1  0.737334  0.000000  0.000000  1
  Li  Li55  1  0.762666  0.500000  0.500000  1
  N  N56  1  0.609496  0.609496  0.609496  1
  N  N57  1  0.890504  0.109496  0.890504  1
  N  N58  1  0.109496  0.890504  0.890504  1
  N  N59  1  0.890504  0.890504  0.109496  1
  N  N60  1  0.609496  0.390504  0.390504  1
  N  N61  1  0.390504  0.390504  0.609496  1
  N  N62  1  0.390504  0.609496  0.390504  1
  N  N63  1  0.109496  0.109496  0.109496  1
  N  N64  1  0.356495  0.383052  0.106829  1
  N  N65  1  0.143505  0.606829  0.116948  1
  N  N66  1  0.143505  0.393171  0.883052  1
  N  N67  1  0.393171  0.116948  0.856495  1
  N  N68  1  0.606829  0.116948  0.143505  1
  N  N69  1  0.883052  0.143505  0.393171  1
  N  N70  1  0.116948  0.856495  0.393171  1
  N  N71  1  0.106829  0.356495  0.383052  1
  N  N72  1  0.383052  0.106829  0.356495  1
  N  N73  1  0.616948  0.893171  0.356495  1
  N  N74  1  0.106829  0.643505  0.616948  1
  N  N75  1  0.616948  0.106829  0.643505  1
  N  N76  1  0.893171  0.643505  0.383052  1
  N  N77  1  0.893171  0.356495  0.616948  1
  N  N78  1  0.383052  0.893171  0.643505  1
  N  N79  1  0.356495  0.616948  0.893171  1
  N  N80  1  0.643505  0.383052  0.893171  1
  N  N81  1  0.643505  0.616948  0.106829  1
  N  N82  1  0.116948  0.143505  0.606829  1
  N  N83  1  0.883052  0.856495  0.606829  1
  N  N84  1  0.393171  0.883052  0.143505  1
  N  N85  1  0.606829  0.883052  0.856495  1
  N  N86  1  0.856495  0.393171  0.116948  1
  N  N87  1  0.856495  0.606829  0.883052  1
  Mn  Mn88  1  0.500000  0.500000  0.500000  1
  Mn  Mn89  1  0.000000  0.000000  0.000000  1
  Mn  Mn90  1  0.500000  0.000000  0.750000  1
  Mn  Mn91  1  0.750000  0.500000  0.000000  1
  Mn  Mn92  1  0.250000  0.500000  0.000000  1
  Mn  Mn93  1  0.000000  0.250000  0.500000  1
  Mn  Mn94  1  0.000000  0.750000  0.500000  1
  Mn  Mn95  1  0.500000  0.000000  0.250000  1
