# generated using pymatgen
data_NiPS
_symmetry_space_group_name_H-M   'P 1'
_cell_length_a   5.54660185
_cell_length_b   5.54660185
_cell_length_c   5.54660185
_cell_angle_alpha   90.00000000
_cell_angle_beta   90.00000000
_cell_angle_gamma   90.00000000
_symmetry_Int_Tables_number   1
_chemical_formula_structural   NiPS
_chemical_formula_sum   'Ni4 P4 S4'
_cell_volume   170.64005268
_cell_formula_units_Z   4
loop_
 _symmetry_equiv_pos_site_id
 _symmetry_equiv_pos_as_xyz
  1  'x, y, z'
loop_
 _atom_site_type_symbol
 _atom_site_label
 _atom_site_symmetry_multiplicity
 _atom_site_fract_x
 _atom_site_fract_y
 _atom_site_fract_z
 _atom_site_occupancy
  Ni  Ni0  1  0.994847  0.505153  0.494847  1
  Ni  Ni1  1  0.005153  0.005153  0.005153  1
  Ni  Ni2  1  0.505153  0.494847  0.994847  1
  Ni  Ni3  1  0.494847  0.994847  0.505153  1
  P  P4  1  0.887402  0.387402  0.112598  1
  P  P5  1  0.387402  0.112598  0.887402  1
  P  P6  1  0.112598  0.887402  0.387402  1
  P  P7  1  0.612598  0.612598  0.612598  1
  S  S8  1  0.388081  0.388081  0.388081  1
  S  S9  1  0.888081  0.111919  0.611919  1
  S  S10  1  0.611919  0.888081  0.111919  1
  S  S11  1  0.111919  0.611919  0.888081  1
