# generated using pymatgen
data_Sr5P3O12F
_symmetry_space_group_name_H-M   'P 1'
_cell_length_a   9.84141850
_cell_length_b   9.84141826
_cell_length_c   7.36548343
_cell_angle_alpha   90.00000000
_cell_angle_beta   90.00000000
_cell_angle_gamma   120.00000080
_symmetry_Int_Tables_number   1
_chemical_formula_structural   Sr5P3O12F
_chemical_formula_sum   'Sr10 P6 O24 F2'
_cell_volume   617.79910539
_cell_formula_units_Z   2
loop_
 _symmetry_equiv_pos_site_id
 _symmetry_equiv_pos_as_xyz
  1  'x, y, z'
loop_
 _atom_site_type_symbol
 _atom_site_label
 _atom_site_symmetry_multiplicity
 _atom_site_fract_x
 _atom_site_fract_y
 _atom_site_fract_z
 _atom_site_occupancy
  F  F0  1  0.000000  0.000000  0.250000  1
  F  F1  1  0.000000  0.000000  0.750000  1
  O  O2  1  0.536164  0.117840  0.250000  1
  O  O3  1  0.520766  0.849565  0.250000  1
  O  O4  1  0.418324  0.536164  0.750000  1
  O  O5  1  0.849565  0.328799  0.750000  1
  O  O6  1  0.739598  0.083748  0.421008  1
  O  O7  1  0.739598  0.083748  0.078992  1
  O  O8  1  0.655850  0.739598  0.921008  1
  O  O9  1  0.655850  0.739598  0.578992  1
  O  O10  1  0.117840  0.581676  0.750000  1
  O  O11  1  0.671201  0.520766  0.750000  1
  O  O12  1  0.083748  0.344150  0.921008  1
  O  O13  1  0.083748  0.344150  0.578992  1
  O  O14  1  0.916252  0.655850  0.421008  1
  O  O15  1  0.916252  0.655850  0.078992  1
  O  O16  1  0.328799  0.479234  0.250000  1
  O  O17  1  0.882160  0.418324  0.250000  1
  O  O18  1  0.344150  0.260402  0.421008  1
  O  O19  1  0.344150  0.260402  0.078992  1
  O  O20  1  0.260402  0.916252  0.921008  1
  O  O21  1  0.260402  0.916252  0.578992  1
  O  O22  1  0.150435  0.671201  0.250000  1
  O  O23  1  0.581676  0.463836  0.250000  1
  O  O24  1  0.479234  0.150435  0.750000  1
  O  O25  1  0.463836  0.882160  0.750000  1
  P  P26  1  0.632300  0.030872  0.250000  1
  P  P27  1  0.601428  0.632300  0.750000  1
  P  P28  1  0.030872  0.398572  0.750000  1
  P  P29  1  0.969128  0.601428  0.250000  1
  P  P30  1  0.398572  0.367700  0.250000  1
  P  P31  1  0.367700  0.969128  0.750000  1
  Sr  Sr32  1  0.241298  0.987556  0.250000  1
  Sr  Sr33  1  0.012444  0.253742  0.250000  1
  Sr  Sr34  1  0.333333  0.666667  0.500750  1
  Sr  Sr35  1  0.333333  0.666667  0.999250  1
  Sr  Sr36  1  0.253742  0.241298  0.750000  1
  Sr  Sr37  1  0.746258  0.758702  0.250000  1
  Sr  Sr38  1  0.666667  0.333333  0.499250  1
  Sr  Sr39  1  0.666667  0.333333  0.000750  1
  Sr  Sr40  1  0.987556  0.746258  0.750000  1
  Sr  Sr41  1  0.758702  0.012444  0.750000  1
