# generated using pymatgen
data_V2Zn2O7
_symmetry_space_group_name_H-M   'P 1'
_cell_length_a   5.08239730
_cell_length_b   5.42635242
_cell_length_c   5.42635242
_cell_angle_alpha   106.35747066
_cell_angle_beta   98.24782588
_cell_angle_gamma   98.24782588
_symmetry_Int_Tables_number   1
_chemical_formula_structural   V2Zn2O7
_chemical_formula_sum   'V2 Zn2 O7'
_cell_volume   139.42098146
_cell_formula_units_Z   1
loop_
 _symmetry_equiv_pos_site_id
 _symmetry_equiv_pos_as_xyz
  1  'x, y, z'
loop_
 _atom_site_type_symbol
 _atom_site_label
 _atom_site_symmetry_multiplicity
 _atom_site_fract_x
 _atom_site_fract_y
 _atom_site_fract_z
 _atom_site_occupancy
  O  O0  1  0.222064  0.428256  0.428256  1
  O  O1  1  0.777936  0.571744  0.571744  1
  O  O2  1  0.294021  0.945164  0.610869  1
  O  O3  1  0.705979  0.389131  0.054836  1
  O  O4  1  0.000000  0.000000  0.000000  1
  O  O5  1  0.294021  0.610869  0.945164  1
  O  O6  1  0.705979  0.054836  0.389131  1
  V  V7  1  0.895327  0.242860  0.242860  1
  V  V8  1  0.104673  0.757140  0.757140  1
  Zn  Zn9  1  0.500000  0.315095  0.684905  1
  Zn  Zn10  1  0.500000  0.684905  0.315095  1
