# generated using pymatgen
data_BaTiO3
_symmetry_space_group_name_H-M   'P 1'
_cell_length_a   3.73358218
_cell_length_b   5.44166109
_cell_length_c   5.44166109
_cell_angle_alpha   104.19531321
_cell_angle_beta   90.00000000
_cell_angle_gamma   90.00000000
_symmetry_Int_Tables_number   1
_chemical_formula_structural   BaTiO3
_chemical_formula_sum   'Ba1 Ti1 O3'
_cell_volume   107.18179225
_cell_formula_units_Z   1
loop_
 _symmetry_equiv_pos_site_id
 _symmetry_equiv_pos_as_xyz
  1  'x, y, z'
loop_
 _atom_site_type_symbol
 _atom_site_label
 _atom_site_symmetry_multiplicity
 _atom_site_fract_x
 _atom_site_fract_y
 _atom_site_fract_z
 _atom_site_occupancy
  Ba  Ba0  1  0.000000  0.636381  0.636381  1
  Ti  Ti1  1  0.500000  0.106637  0.106637  1
  O  O2  1  0.500000  0.378105  0.378105  1
  O  O3  1  0.500000  0.111986  0.786891  1
  O  O4  1  0.500000  0.786891  0.111986  1
