# generated using pymatgen
data_Ga3Fe
_symmetry_space_group_name_H-M   'P 1'
_cell_length_a   6.27773935
_cell_length_b   6.27103139
_cell_length_c   6.48107332
_cell_angle_alpha   90.03544766
_cell_angle_beta   90.04348140
_cell_angle_gamma   90.02333769
_symmetry_Int_Tables_number   1
_chemical_formula_structural   Ga3Fe
_chemical_formula_sum   'Ga12 Fe4'
_cell_volume   255.14610624
_cell_formula_units_Z   4
loop_
 _symmetry_equiv_pos_site_id
 _symmetry_equiv_pos_as_xyz
  1  'x, y, z'
loop_
 _atom_site_type_symbol
 _atom_site_label
 _atom_site_symmetry_multiplicity
 _atom_site_fract_x
 _atom_site_fract_y
 _atom_site_fract_z
 _atom_site_occupancy
  Ga  Ga0  1  0.344043  0.656223  0.757751  1
  Ga  Ga1  1  0.156487  0.155991  0.741807  1
  Ga  Ga2  1  0.656543  0.343375  0.241885  1
  Ga  Ga3  1  0.655994  0.343418  0.758022  1
  Ga  Ga4  1  0.499721  0.000079  0.000702  1
  Ga  Ga5  1  0.843305  0.844053  0.258216  1
  Ga  Ga6  1  -0.000175  0.499818  0.499546  1
  Ga  Ga7  1  0.156812  0.156280  0.258369  1
  Ga  Ga8  1  0.344070  0.656777  0.241574  1
  Ga  Ga9  1  0.843654  0.843786  0.741837  1
  Ga  Ga10  1  0.499965  0.000605  0.499436  1
  Ga  Ga11  1  0.999773  0.499777  0.000541  1
  Fe  Fe12  1  0.848711  0.151497  0.500400  1
  Fe  Fe13  1  0.151380  0.848141  0.500134  1
  Fe  Fe14  1  0.348320  0.348434  0.000126  1
  Fe  Fe15  1  0.651398  0.651746  -0.000346  1
