# generated using pymatgen
data_ScNiGe
_symmetry_space_group_name_H-M   'P 1'
_cell_length_a   4.09911825
_cell_length_b   6.47600607
_cell_length_c   7.09156339
_cell_angle_alpha   90.00000000
_cell_angle_beta   90.00000000
_cell_angle_gamma   90.00000000
_symmetry_Int_Tables_number   1
_chemical_formula_structural   ScNiGe
_chemical_formula_sum   'Sc4 Ni4 Ge4'
_cell_volume   188.25203662
_cell_formula_units_Z   4
loop_
 _symmetry_equiv_pos_site_id
 _symmetry_equiv_pos_as_xyz
  1  'x, y, z'
loop_
 _atom_site_type_symbol
 _atom_site_label
 _atom_site_symmetry_multiplicity
 _atom_site_fract_x
 _atom_site_fract_y
 _atom_site_fract_z
 _atom_site_occupancy
  Sc  Sc0  1  0.750000  0.505873  0.707615  1
  Sc  Sc1  1  0.250000  0.494127  0.292385  1
  Sc  Sc2  1  0.750000  0.005873  0.792385  1
  Sc  Sc3  1  0.250000  0.994127  0.207615  1
  Ni  Ni4  1  0.750000  0.809894  0.420858  1
  Ni  Ni5  1  0.250000  0.190106  0.579142  1
  Ni  Ni6  1  0.750000  0.309894  0.079142  1
  Ni  Ni7  1  0.250000  0.690106  0.920858  1
  Ge  Ge8  1  0.750000  0.204432  0.407268  1
  Ge  Ge9  1  0.250000  0.795568  0.592732  1
  Ge  Ge10  1  0.750000  0.704432  0.092732  1
  Ge  Ge11  1  0.250000  0.295568  0.907268  1
