# generated using pymatgen
data_ZrO2
_symmetry_space_group_name_H-M   'P 1'
_cell_length_a   4.03872302
_cell_length_b   6.99073667
_cell_length_c   7.12998918
_cell_angle_alpha   74.18943186
_cell_angle_beta   89.84120324
_cell_angle_gamma   73.44231976
_symmetry_Int_Tables_number   1
_chemical_formula_structural   ZrO2
_chemical_formula_sum   'Zr4 O8'
_cell_volume   185.04526541
_cell_formula_units_Z   4
loop_
 _symmetry_equiv_pos_site_id
 _symmetry_equiv_pos_as_xyz
  1  'x, y, z'
loop_
 _atom_site_type_symbol
 _atom_site_label
 _atom_site_symmetry_multiplicity
 _atom_site_fract_x
 _atom_site_fract_y
 _atom_site_fract_z
 _atom_site_occupancy
  Zr  Zr0  1  0.096767  0.799702  0.709414  1
  Zr  Zr1  1  0.197076  0.609784  0.285761  1
  Zr  Zr2  1  0.801407  0.387971  0.712108  1
  Zr  Zr3  1  0.900430  0.197880  0.288723  1
  O  O4  1  0.063877  0.879357  0.375163  1
  O  O5  1  0.638493  0.716160  0.705063  1
  O  O6  1  0.126624  0.733995  0.002623  1
  O  O7  1  0.256269  0.480351  0.646122  1
  O  O8  1  0.741758  0.517709  0.351362  1
  O  O9  1  0.861053  0.264000  0.994739  1
  O  O10  1  0.357707  0.281931  0.292920  1
  O  O11  1  0.935967  0.118087  0.622604  1
