# generated using pymatgen
data_LiFeF4
_symmetry_space_group_name_H-M   'P 1'
_cell_length_a   5.20015796
_cell_length_b   6.38268541
_cell_length_c   5.41473784
_cell_angle_alpha   88.25077313
_cell_angle_beta   90.00000000
_cell_angle_gamma   65.96062064
_symmetry_Int_Tables_number   1
_chemical_formula_structural   LiFeF4
_chemical_formula_sum   'Li2 Fe2 F8'
_cell_volume   164.04078090
_cell_formula_units_Z   2
loop_
 _symmetry_equiv_pos_site_id
 _symmetry_equiv_pos_as_xyz
  1  'x, y, z'
loop_
 _atom_site_type_symbol
 _atom_site_label
 _atom_site_symmetry_multiplicity
 _atom_site_fract_x
 _atom_site_fract_y
 _atom_site_fract_z
 _atom_site_occupancy
  Li  Li0  1  0.946123  0.000000  0.750000  1
  Li  Li1  1  0.053877  0.000000  0.250000  1
  Fe  Fe2  1  0.000000  0.500000  0.500000  1
  Fe  Fe3  1  0.500000  0.500000  0.000000  1
  F  F4  1  0.244371  0.820690  0.975265  1
  F  F5  1  0.934939  0.820690  0.475265  1
  F  F6  1  0.339207  0.436244  0.700093  1
  F  F7  1  0.775452  0.563756  0.799907  1
  F  F8  1  0.224548  0.436244  0.200093  1
  F  F9  1  0.660793  0.563756  0.299907  1
  F  F10  1  0.065061  0.179310  0.524735  1
  F  F11  1  0.755629  0.179310  0.024735  1
