# generated using pymatgen
data_SrTiN2
_symmetry_space_group_name_H-M   'P 1'
_cell_length_a   3.90162225
_cell_length_b   3.90162225
_cell_length_c   7.76092199
_cell_angle_alpha   90.00000000
_cell_angle_beta   90.00000000
_cell_angle_gamma   90.00000000
_symmetry_Int_Tables_number   1
_chemical_formula_structural   SrTiN2
_chemical_formula_sum   'Sr2 Ti2 N4'
_cell_volume   118.14184711
_cell_formula_units_Z   2
loop_
 _symmetry_equiv_pos_site_id
 _symmetry_equiv_pos_as_xyz
  1  'x, y, z'
loop_
 _atom_site_type_symbol
 _atom_site_label
 _atom_site_symmetry_multiplicity
 _atom_site_fract_x
 _atom_site_fract_y
 _atom_site_fract_z
 _atom_site_occupancy
  N  N0  1  0.750000  0.750000  0.823626  1
  N  N1  1  0.250000  0.250000  0.176374  1
  N  N2  1  0.750000  0.250000  0.500000  1
  N  N3  1  0.250000  0.750000  0.500000  1
  Ti  Ti4  1  0.250000  0.250000  0.413627  1
  Ti  Ti5  1  0.750000  0.750000  0.586373  1
  Sr  Sr6  1  0.750000  0.750000  0.161585  1
  Sr  Sr7  1  0.250000  0.250000  0.838415  1
