# generated using pymatgen
data_Ca3VN3
_symmetry_space_group_name_H-M   'P 1'
_cell_length_a   5.08656629
_cell_length_b   6.73075622
_cell_length_c   6.73075623
_cell_angle_alpha   101.33373046
_cell_angle_beta   90.00000000
_cell_angle_gamma   90.00000000
_symmetry_Int_Tables_number   1
_chemical_formula_structural   Ca3VN3
_chemical_formula_sum   'Ca6 V2 N6'
_cell_volume   225.94339295
_cell_formula_units_Z   2
loop_
 _symmetry_equiv_pos_site_id
 _symmetry_equiv_pos_as_xyz
  1  'x, y, z'
loop_
 _atom_site_type_symbol
 _atom_site_label
 _atom_site_symmetry_multiplicity
 _atom_site_fract_x
 _atom_site_fract_y
 _atom_site_fract_z
 _atom_site_occupancy
  N  N0  1  0.750000  0.569198  0.816710  1
  N  N1  1  0.250000  0.430802  0.183290  1
  N  N2  1  0.750000  0.127054  0.872946  1
  N  N3  1  0.250000  0.872946  0.127054  1
  N  N4  1  0.750000  0.183290  0.430802  1
  N  N5  1  0.250000  0.816710  0.569198  1
  Ca  Ca6  1  0.750000  0.827979  0.597883  1
  Ca  Ca7  1  0.250000  0.172021  0.402117  1
  Ca  Ca8  1  0.250000  0.108592  0.891408  1
  Ca  Ca9  1  0.750000  0.891408  0.108592  1
  Ca  Ca10  1  0.250000  0.597883  0.827979  1
  Ca  Ca11  1  0.750000  0.402117  0.172021  1
  V  V12  1  0.250000  0.697535  0.302465  1
  V  V13  1  0.750000  0.302465  0.697535  1
