# generated using pymatgen
data_LiAlH4
_symmetry_space_group_name_H-M   'P 1'
_cell_length_a   6.02646559
_cell_length_b   6.02667155
_cell_length_c   6.02872638
_cell_angle_alpha   135.42731450
_cell_angle_beta   135.30809126
_cell_angle_gamma   64.93103612
_symmetry_Int_Tables_number   1
_chemical_formula_structural   LiAlH4
_chemical_formula_sum   'Li2 Al2 H8'
_cell_volume   106.54675773
_cell_formula_units_Z   2
loop_
 _symmetry_equiv_pos_site_id
 _symmetry_equiv_pos_as_xyz
  1  'x, y, z'
loop_
 _atom_site_type_symbol
 _atom_site_label
 _atom_site_symmetry_multiplicity
 _atom_site_fract_x
 _atom_site_fract_y
 _atom_site_fract_z
 _atom_site_occupancy
  Li  Li0  1  0.625790  0.875786  0.749976  1
  Li  Li1  1  0.374210  0.124211  0.250023  1
  Al  Al2  1  0.875540  0.625529  0.249982  1
  Al  Al3  1  0.124458  0.374472  0.750017  1
  H  H4  1  0.612846  0.289791  0.821826  1
  H  H5  1  0.967984  0.791038  0.678204  1
  H  H6  1  0.790562  0.469803  0.679413  1
  H  H7  1  0.709602  0.888861  0.179415  1
  H  H8  1  0.032014  0.208961  0.321794  1
  H  H9  1  0.387153  0.710207  0.178172  1
  H  H10  1  0.290400  0.111136  0.820585  1
  H  H11  1  0.209440  0.530194  0.320588  1
