# generated using pymatgen
data_Si3N4
_symmetry_space_group_name_H-M   'P 1'
_cell_length_a   7.66070905
_cell_length_b   7.66070905
_cell_length_c   2.92515504
_cell_angle_alpha   90.00000000
_cell_angle_beta   90.00000000
_cell_angle_gamma   120.00000002
_symmetry_Int_Tables_number   1
_chemical_formula_structural   Si3N4
_chemical_formula_sum   'Si6 N8'
_cell_volume   148.66798591
_cell_formula_units_Z   2
loop_
 _symmetry_equiv_pos_site_id
 _symmetry_equiv_pos_as_xyz
  1  'x, y, z'
loop_
 _atom_site_type_symbol
 _atom_site_label
 _atom_site_symmetry_multiplicity
 _atom_site_fract_x
 _atom_site_fract_y
 _atom_site_fract_z
 _atom_site_occupancy
  N  N0  1  0.666667  0.333333  0.325626  1
  N  N1  1  0.333333  0.666667  0.825626  1
  N  N2  1  0.969213  0.670027  0.825635  1
  N  N3  1  0.299186  0.969213  0.325635  1
  N  N4  1  0.670027  0.700814  0.325635  1
  N  N5  1  0.329973  0.299186  0.825635  1
  N  N6  1  0.030787  0.329973  0.325635  1
  N  N7  1  0.700814  0.030787  0.825635  1
  Si  Si8  1  0.231134  0.825023  0.825623  1
  Si  Si9  1  0.406111  0.231134  0.325623  1
  Si  Si10  1  0.825023  0.593889  0.325623  1
  Si  Si11  1  0.174977  0.406111  0.825623  1
  Si  Si12  1  0.593889  0.768866  0.825623  1
  Si  Si13  1  0.768866  0.174977  0.325623  1
