# generated using pymatgen
data_K2LiAlF6
_symmetry_space_group_name_H-M   'P 1'
_cell_length_a   5.64587893
_cell_length_b   5.64587894
_cell_length_c   5.64587893
_cell_angle_alpha   59.99999999
_cell_angle_beta   59.99999996
_cell_angle_gamma   60.00000001
_symmetry_Int_Tables_number   1
_chemical_formula_structural   K2LiAlF6
_chemical_formula_sum   'K2 Li1 Al1 F6'
_cell_volume   127.25641536
_cell_formula_units_Z   1
loop_
 _symmetry_equiv_pos_site_id
 _symmetry_equiv_pos_as_xyz
  1  'x, y, z'
loop_
 _atom_site_type_symbol
 _atom_site_label
 _atom_site_symmetry_multiplicity
 _atom_site_fract_x
 _atom_site_fract_y
 _atom_site_fract_z
 _atom_site_occupancy
  Li  Li0  1  0.500000  0.500000  0.500000  1
  F  F1  1  0.768801  0.231199  0.231199  1
  F  F2  1  0.768801  0.231199  0.768801  1
  F  F3  1  0.231199  0.768801  0.768801  1
  F  F4  1  0.231199  0.231199  0.768801  1
  F  F5  1  0.768801  0.768801  0.231199  1
  F  F6  1  0.231199  0.768801  0.231199  1
  Al  Al7  1  0.000000  0.000000  0.000000  1
  K  K8  1  0.750000  0.750000  0.750000  1
  K  K9  1  0.250000  0.250000  0.250000  1
