# generated using pymatgen
data_MnCO3
_symmetry_space_group_name_H-M   'P 1'
_cell_length_a   5.99213959
_cell_length_b   5.99213959
_cell_length_c   5.99213959
_cell_angle_alpha   47.66159819
_cell_angle_beta   47.66159824
_cell_angle_gamma   47.66159821
_symmetry_Int_Tables_number   1
_chemical_formula_structural   MnCO3
_chemical_formula_sum   'Mn2 C2 O6'
_cell_volume   107.61584779
_cell_formula_units_Z   2
loop_
 _symmetry_equiv_pos_site_id
 _symmetry_equiv_pos_as_xyz
  1  'x, y, z'
loop_
 _atom_site_type_symbol
 _atom_site_label
 _atom_site_symmetry_multiplicity
 _atom_site_fract_x
 _atom_site_fract_y
 _atom_site_fract_z
 _atom_site_occupancy
  C  C0  1  0.750000  0.750000  0.750000  1
  C  C1  1  0.250000  0.250000  0.250000  1
  O  O2  1  0.481745  0.018255  0.750000  1
  O  O3  1  0.750000  0.481745  0.018255  1
  O  O4  1  0.981745  0.250000  0.518255  1
  O  O5  1  0.518255  0.981745  0.250000  1
  O  O6  1  0.250000  0.518255  0.981745  1
  O  O7  1  0.018255  0.750000  0.481745  1
  Mn  Mn8  1  0.000000  0.000000  0.000000  1
  Mn  Mn9  1  0.500000  0.500000  0.500000  1
