# generated using pymatgen
data_ScGa2
_symmetry_space_group_name_H-M   'P 1'
_cell_length_a   4.11244197
_cell_length_b   4.17441822
_cell_length_c   6.66893371
_cell_angle_alpha   90.00000000
_cell_angle_beta   107.95851481
_cell_angle_gamma   90.00000000
_symmetry_Int_Tables_number   1
_chemical_formula_structural   ScGa2
_chemical_formula_sum   'Sc2 Ga4'
_cell_volume   108.90818300
_cell_formula_units_Z   2
loop_
 _symmetry_equiv_pos_site_id
 _symmetry_equiv_pos_as_xyz
  1  'x, y, z'
loop_
 _atom_site_type_symbol
 _atom_site_label
 _atom_site_symmetry_multiplicity
 _atom_site_fract_x
 _atom_site_fract_y
 _atom_site_fract_z
 _atom_site_occupancy
  Sc  Sc0  1  0.347083  0.000000  0.694167  1
  Sc  Sc1  1  0.652917  0.000000  0.305833  1
  Ga  Ga2  1  0.822981  0.500000  0.645961  1
  Ga  Ga3  1  0.177019  0.500000  0.354039  1
  Ga  Ga4  1  0.500000  0.500000  0.000000  1
  Ga  Ga5  1  0.000000  0.000000  0.000000  1
