# generated using pymatgen
data_VO2
_symmetry_space_group_name_H-M   'P 1'
_cell_length_a   3.04445032
_cell_length_b   4.50720214
_cell_length_c   4.50720214
_cell_angle_alpha   89.98371841
_cell_angle_beta   90.00000000
_cell_angle_gamma   90.00000000
_symmetry_Int_Tables_number   1
_chemical_formula_structural   VO2
_chemical_formula_sum   'V2 O4'
_cell_volume   61.84761329
_cell_formula_units_Z   2
loop_
 _symmetry_equiv_pos_site_id
 _symmetry_equiv_pos_as_xyz
  1  'x, y, z'
loop_
 _atom_site_type_symbol
 _atom_site_label
 _atom_site_symmetry_multiplicity
 _atom_site_fract_x
 _atom_site_fract_y
 _atom_site_fract_z
 _atom_site_occupancy
  V  V0  1  0.000000  0.000000  0.000000  1
  V  V1  1  0.500000  0.500000  0.500000  1
  O  O2  1  0.000000  0.299642  0.299642  1
  O  O3  1  0.000000  0.700358  0.700358  1
  O  O4  1  0.500000  0.799545  0.200455  1
  O  O5  1  0.500000  0.200455  0.799545  1
