# generated using pymatgen
data_CoCu2SnSe4
_symmetry_space_group_name_H-M   'P 1'
_cell_length_a   5.72041237
_cell_length_b   5.72041237
_cell_length_c   6.94016755
_cell_angle_alpha   114.33830011
_cell_angle_beta   114.33830017
_cell_angle_gamma   90.00000002
_symmetry_Int_Tables_number   1
_chemical_formula_structural   CoCu2SnSe4
_chemical_formula_sum   'Co1 Cu2 Sn1 Se4'
_cell_volume   184.54320136
_cell_formula_units_Z   1
loop_
 _symmetry_equiv_pos_site_id
 _symmetry_equiv_pos_as_xyz
  1  'x, y, z'
loop_
 _atom_site_type_symbol
 _atom_site_label
 _atom_site_symmetry_multiplicity
 _atom_site_fract_x
 _atom_site_fract_y
 _atom_site_fract_z
 _atom_site_occupancy
  Co  Co0  1  0.000000  0.000000  0.000000  1
  Cu  Cu1  1  0.750000  0.250000  0.500000  1
  Cu  Cu2  1  0.250000  0.750000  0.500000  1
  Se  Se3  1  0.360557  0.360557  0.264955  1
  Se  Se4  1  0.639443  0.095602  0.735045  1
  Se  Se5  1  0.095602  0.639443  0.735045  1
  Se  Se6  1  0.904398  0.904398  0.264955  1
  Sn  Sn7  1  0.500000  0.500000  0.000000  1
