# generated using pymatgen
data_YAl
_symmetry_space_group_name_H-M   'P 1'
_cell_length_a   3.85874235
_cell_length_b   4.41163606
_cell_length_c   6.12340600
_cell_angle_alpha   90.00000000
_cell_angle_beta   108.36572634
_cell_angle_gamma   90.00000000
_symmetry_Int_Tables_number   1
_chemical_formula_structural   YAl
_chemical_formula_sum   'Y2 Al2'
_cell_volume   98.93143695
_cell_formula_units_Z   2
loop_
 _symmetry_equiv_pos_site_id
 _symmetry_equiv_pos_as_xyz
  1  'x, y, z'
loop_
 _atom_site_type_symbol
 _atom_site_label
 _atom_site_symmetry_multiplicity
 _atom_site_fract_x
 _atom_site_fract_y
 _atom_site_fract_z
 _atom_site_occupancy
  Al  Al0  1  0.568432  0.250000  0.136864  1
  Al  Al1  1  0.431568  0.750000  0.863136  1
  Y  Y2  1  0.847349  0.250000  0.694697  1
  Y  Y3  1  0.152651  0.750000  0.305303  1
