# generated using pymatgen
data_LiFeAs2O7
_symmetry_space_group_name_H-M   'P 1'
_cell_length_a   4.72957874
_cell_length_b   5.33034978
_cell_length_c   5.33034978
_cell_angle_alpha   102.34511904
_cell_angle_beta   98.60922686
_cell_angle_gamma   98.60922690
_symmetry_Int_Tables_number   1
_chemical_formula_structural   LiFeAs2O7
_chemical_formula_sum   'Li1 Fe1 As2 O7'
_cell_volume   127.47611200
_cell_formula_units_Z   1
loop_
 _symmetry_equiv_pos_site_id
 _symmetry_equiv_pos_as_xyz
  1  'x, y, z'
loop_
 _atom_site_type_symbol
 _atom_site_label
 _atom_site_symmetry_multiplicity
 _atom_site_fract_x
 _atom_site_fract_y
 _atom_site_fract_z
 _atom_site_occupancy
  Li  Li0  1  0.000000  0.252208  0.747792  1
  O  O1  1  0.500000  0.447346  0.552654  1
  O  O2  1  0.268757  0.161586  0.043799  1
  O  O3  1  0.164486  0.643111  0.861098  1
  O  O4  1  0.835514  0.138902  0.356889  1
  O  O5  1  0.269107  0.891689  0.441441  1
  O  O6  1  0.730893  0.558559  0.108311  1
  O  O7  1  0.731243  0.956201  0.838414  1
  Fe  Fe8  1  0.000000  0.880910  0.119090  1
  As  As9  1  0.594693  0.320966  0.245358  1
  As  As10  1  0.405307  0.754642  0.679034  1
