# generated using pymatgen
data_Ga
_symmetry_space_group_name_H-M   'P 1'
_cell_length_a   2.77358267
_cell_length_b   3.35598543
_cell_length_c   4.32133421
_cell_angle_alpha   89.63874532
_cell_angle_beta   71.28158898
_cell_angle_gamma   88.87422299
_symmetry_Int_Tables_number   1
_chemical_formula_structural   Ga
_chemical_formula_sum   Ga2
_cell_volume   38.08854130
_cell_formula_units_Z   2
loop_
 _symmetry_equiv_pos_site_id
 _symmetry_equiv_pos_as_xyz
  1  'x, y, z'
loop_
 _atom_site_type_symbol
 _atom_site_label
 _atom_site_symmetry_multiplicity
 _atom_site_fract_x
 _atom_site_fract_y
 _atom_site_fract_z
 _atom_site_occupancy
  Ga  Ga0  1  0.866145  0.750000  0.267709  1
  Ga  Ga1  1  0.133855  0.250000  0.732291  1
