# generated using pymatgen
data_LiB
_symmetry_space_group_name_H-M   'P 1'
_cell_length_a   3.11177102
_cell_length_b   4.02834250
_cell_length_c   4.02834250
_cell_angle_alpha   120.00397537
_cell_angle_beta   90.00000000
_cell_angle_gamma   90.00000000
_symmetry_Int_Tables_number   1
_chemical_formula_structural   LiB
_chemical_formula_sum   'Li2 B2'
_cell_volume   43.72941231
_cell_formula_units_Z   2
loop_
 _symmetry_equiv_pos_site_id
 _symmetry_equiv_pos_as_xyz
  1  'x, y, z'
loop_
 _atom_site_type_symbol
 _atom_site_label
 _atom_site_symmetry_multiplicity
 _atom_site_fract_x
 _atom_site_fract_y
 _atom_site_fract_z
 _atom_site_occupancy
  Li  Li0  1  0.750000  0.666691  0.333309  1
  Li  Li1  1  0.250000  0.333309  0.666691  1
  B  B2  1  0.750000  0.000001  0.999999  1
  B  B3  1  0.250000  0.999999  0.000001  1
