# generated using pymatgen
data_KPtN
_symmetry_space_group_name_H-M   'P 1'
_cell_length_a   5.26782280
_cell_length_b   5.26753251
_cell_length_c   9.30819864
_cell_angle_alpha   90.00000000
_cell_angle_beta   90.03264049
_cell_angle_gamma   90.00000000
_symmetry_Int_Tables_number   1
_chemical_formula_structural   KPtN
_chemical_formula_sum   'K4 Pt4 N4'
_cell_volume   258.28783660
_cell_formula_units_Z   4
loop_
 _symmetry_equiv_pos_site_id
 _symmetry_equiv_pos_as_xyz
  1  'x, y, z'
loop_
 _atom_site_type_symbol
 _atom_site_label
 _atom_site_symmetry_multiplicity
 _atom_site_fract_x
 _atom_site_fract_y
 _atom_site_fract_z
 _atom_site_occupancy
  K  K0  1  0.324088  0.000593  0.534328  1
  K  K1  1  0.324088  0.999407  0.034328  1
  K  K2  1  0.824088  0.500593  0.534328  1
  K  K3  1  0.824088  0.499407  0.034328  1
  Pt  Pt4  1  0.324470  0.500814  0.784341  1
  Pt  Pt5  1  0.324470  0.499186  0.284341  1
  Pt  Pt6  1  0.824470  0.000814  0.784341  1
  Pt  Pt7  1  0.824470  0.999186  0.284341  1
  N  N8  1  0.074442  0.250831  0.784331  1
  N  N9  1  0.574442  0.249169  0.284331  1
  N  N10  1  0.574442  0.750831  0.784331  1
  N  N11  1  0.074442  0.749169  0.284331  1
