# generated using pymatgen
data_Cs2Pd3Se4
_symmetry_space_group_name_H-M   'P 1'
_cell_length_a   6.55915043
_cell_length_b   6.55915097
_cell_length_c   8.06220454
_cell_angle_alpha   102.10898345
_cell_angle_beta   102.10898953
_cell_angle_gamma   118.93879383
_symmetry_Int_Tables_number   1
_chemical_formula_structural   Cs2Pd3Se4
_chemical_formula_sum   'Cs2 Pd3 Se4'
_cell_volume   276.45767555
_cell_formula_units_Z   1
loop_
 _symmetry_equiv_pos_site_id
 _symmetry_equiv_pos_as_xyz
  1  'x, y, z'
loop_
 _atom_site_type_symbol
 _atom_site_label
 _atom_site_symmetry_multiplicity
 _atom_site_fract_x
 _atom_site_fract_y
 _atom_site_fract_z
 _atom_site_occupancy
  Cs  Cs0  1  0.346565  0.346565  0.693059  1
  Cs  Cs1  1  0.653435  0.653435  0.306941  1
  Pd  Pd2  1  0.000000  0.000000  0.000000  1
  Pd  Pd3  1  0.000000  0.500000  0.000000  1
  Pd  Pd4  1  0.500000  0.000000  0.000000  1
  Se  Se5  1  0.058098  0.721977  0.779772  1
  Se  Se6  1  0.941902  0.278023  0.220228  1
  Se  Se7  1  0.278023  0.941902  0.220228  1
  Se  Se8  1  0.721977  0.058098  0.779772  1
