# generated using pymatgen
data_KSbO3
_symmetry_space_group_name_H-M   'P 1'
_cell_length_a   7.51563038
_cell_length_b   7.51563037
_cell_length_c   7.51563037
_cell_angle_alpha   59.99999997
_cell_angle_beta   59.99999998
_cell_angle_gamma   59.99999997
_symmetry_Int_Tables_number   1
_chemical_formula_structural   KSbO3
_chemical_formula_sum   'K4 Sb4 O12'
_cell_volume   300.17964558
_cell_formula_units_Z   4
loop_
 _symmetry_equiv_pos_site_id
 _symmetry_equiv_pos_as_xyz
  1  'x, y, z'
loop_
 _atom_site_type_symbol
 _atom_site_label
 _atom_site_symmetry_multiplicity
 _atom_site_fract_x
 _atom_site_fract_y
 _atom_site_fract_z
 _atom_site_occupancy
  O  O0  1  0.179226  0.570774  0.570774  1
  O  O1  1  0.429226  0.820774  0.820774  1
  O  O2  1  0.570774  0.179226  0.570774  1
  O  O3  1  0.570774  0.570774  0.179226  1
  O  O4  1  0.179226  0.179226  0.570774  1
  O  O5  1  0.179226  0.570774  0.179226  1
  O  O6  1  0.429226  0.820774  0.429226  1
  O  O7  1  0.820774  0.429226  0.820774  1
  O  O8  1  0.570774  0.179226  0.179226  1
  O  O9  1  0.820774  0.820774  0.429226  1
  O  O10  1  0.429226  0.429226  0.820774  1
  O  O11  1  0.820774  0.429226  0.429226  1
  K  K12  1  0.000000  0.000000  0.000000  1
  K  K13  1  0.000000  0.000000  0.500000  1
  K  K14  1  0.500000  0.000000  0.000000  1
  K  K15  1  0.000000  0.500000  0.000000  1
  Sb  Sb16  1  0.500000  0.500000  0.500000  1
  Sb  Sb17  1  0.500000  0.500000  0.000000  1
  Sb  Sb18  1  0.000000  0.500000  0.500000  1
  Sb  Sb19  1  0.500000  0.000000  0.500000  1
