# generated using pymatgen
data_TaAs
_symmetry_space_group_name_H-M   'P 1'
_cell_length_a   3.46982804
_cell_length_b   3.46982843
_cell_length_c   6.36101891
_cell_angle_alpha   105.82747295
_cell_angle_beta   105.82747456
_cell_angle_gamma   89.99999623
_symmetry_Int_Tables_number   1
_chemical_formula_structural   TaAs
_chemical_formula_sum   'Ta2 As2'
_cell_volume   70.65852723
_cell_formula_units_Z   2
loop_
 _symmetry_equiv_pos_site_id
 _symmetry_equiv_pos_as_xyz
  1  'x, y, z'
loop_
 _atom_site_type_symbol
 _atom_site_label
 _atom_site_symmetry_multiplicity
 _atom_site_fract_x
 _atom_site_fract_y
 _atom_site_fract_z
 _atom_site_occupancy
  As  As0  1  0.417731  0.417731  0.835461  1
  As  As1  1  0.167731  0.667731  0.335461  1
  Ta  Ta2  1  0.999969  0.999969  0.999939  1
  Ta  Ta3  1  0.749969  0.249969  0.499939  1
