# generated using pymatgen
data_Sr2Mn3(SbO)2
_symmetry_space_group_name_H-M   'P 1'
_cell_length_a   4.34505271
_cell_length_b   4.34505272
_cell_length_c   10.73211478
_cell_angle_alpha   101.67922769
_cell_angle_beta   101.67922771
_cell_angle_gamma   90.00000000
_symmetry_Int_Tables_number   1
_chemical_formula_structural   Sr2Mn3(SbO)2
_chemical_formula_sum   'Sr2 Mn3 Sb2 O2'
_cell_volume   194.13630842
_cell_formula_units_Z   1
loop_
 _symmetry_equiv_pos_site_id
 _symmetry_equiv_pos_as_xyz
  1  'x, y, z'
loop_
 _atom_site_type_symbol
 _atom_site_label
 _atom_site_symmetry_multiplicity
 _atom_site_fract_x
 _atom_site_fract_y
 _atom_site_fract_z
 _atom_site_occupancy
  O  O0  1  0.999999  0.499999  0.000000  1
  O  O1  1  0.500001  1.000000  0.000000  1
  Mn  Mn2  1  0.000000  0.000000  0.000000  1
  Mn  Mn3  1  0.750000  0.250001  0.500000  1
  Mn  Mn4  1  0.250001  0.750000  0.500000  1
  Sr  Sr5  1  0.421609  0.421609  0.843218  1
  Sr  Sr6  1  0.578392  0.578392  0.156783  1
  Sb  Sb7  1  0.839116  0.839116  0.678232  1
  Sb  Sb8  1  0.160883  0.160883  0.321767  1
