# generated using pymatgen
data_SrCuSF
_symmetry_space_group_name_H-M   'P 1'
_cell_length_a   3.97562331
_cell_length_b   3.97558914
_cell_length_c   8.70215917
_cell_angle_alpha   90.00029100
_cell_angle_beta   90.00054378
_cell_angle_gamma   90.00006471
_symmetry_Int_Tables_number   1
_chemical_formula_structural   SrCuSF
_chemical_formula_sum   'Sr2 Cu2 S2 F2'
_cell_volume   137.54149689
_cell_formula_units_Z   2
loop_
 _symmetry_equiv_pos_site_id
 _symmetry_equiv_pos_as_xyz
  1  'x, y, z'
loop_
 _atom_site_type_symbol
 _atom_site_label
 _atom_site_symmetry_multiplicity
 _atom_site_fract_x
 _atom_site_fract_y
 _atom_site_fract_z
 _atom_site_occupancy
  Sr  Sr0  1  0.750001  0.750002  0.671672  1
  Sr  Sr1  1  0.250001  0.250003  0.328327  1
  Cu  Cu2  1  0.750003  0.249997  0.000002  1
  Cu  Cu3  1  0.249991  0.749986  -0.000006  1
  S  S4  1  0.750002  0.750008  0.160479  1
  S  S5  1  0.249999  0.250003  0.839522  1
  F  F6  1  0.750000  0.250001  0.500000  1
  F  F7  1  0.250003  0.750001  0.500004  1
