# generated using pymatgen
data_InBr
_symmetry_space_group_name_H-M   'P 1'
_cell_length_a   4.55813188
_cell_length_b   4.72475210
_cell_length_c   6.66466857
_cell_angle_alpha   90.00000000
_cell_angle_beta   109.99647813
_cell_angle_gamma   90.00000000
_symmetry_Int_Tables_number   1
_chemical_formula_structural   InBr
_chemical_formula_sum   'In2 Br2'
_cell_volume   134.87765344
_cell_formula_units_Z   2
loop_
 _symmetry_equiv_pos_site_id
 _symmetry_equiv_pos_as_xyz
  1  'x, y, z'
loop_
 _atom_site_type_symbol
 _atom_site_label
 _atom_site_symmetry_multiplicity
 _atom_site_fract_x
 _atom_site_fract_y
 _atom_site_fract_z
 _atom_site_occupancy
  Br  Br0  1  0.148315  0.750000  0.296629  1
  Br  Br1  1  0.851685  0.250000  0.703371  1
  In  In2  1  0.391813  0.750000  0.783626  1
  In  In3  1  0.608187  0.250000  0.216374  1
