# generated using pymatgen
data_Sc2O3
_symmetry_space_group_name_H-M   'P 1'
_cell_length_a   8.58585741
_cell_length_b   8.58585742
_cell_length_c   8.58585742
_cell_angle_alpha   109.47122061
_cell_angle_beta   109.47122063
_cell_angle_gamma   109.47122063
_symmetry_Int_Tables_number   1
_chemical_formula_structural   Sc2O3
_chemical_formula_sum   'Sc16 O24'
_cell_volume   487.22450778
_cell_formula_units_Z   8
loop_
 _symmetry_equiv_pos_site_id
 _symmetry_equiv_pos_as_xyz
  1  'x, y, z'
loop_
 _atom_site_type_symbol
 _atom_site_label
 _atom_site_symmetry_multiplicity
 _atom_site_fract_x
 _atom_site_fract_y
 _atom_site_fract_z
 _atom_site_occupancy
  O  O0  1  0.727382  0.262928  0.773375  1
  O  O1  1  0.989553  0.954006  0.726625  1
  O  O2  1  0.510447  0.237072  0.964453  1
  O  O3  1  0.545994  0.535547  0.772618  1
  O  O4  1  0.535547  0.772618  0.545994  1
  O  O5  1  0.773375  0.727382  0.262928  1
  O  O6  1  0.954006  0.726625  0.989553  1
  O  O7  1  0.964453  0.510447  0.237072  1
  O  O8  1  0.262928  0.773375  0.727382  1
  O  O9  1  0.726625  0.989553  0.954006  1
  O  O10  1  0.237072  0.964453  0.510447  1
  O  O11  1  0.772618  0.545994  0.535547  1
  O  O12  1  0.046004  0.273317  0.010422  1
  O  O13  1  0.762895  0.035582  0.489578  1
  O  O14  1  0.737105  0.226683  0.272687  1
  O  O15  1  0.464418  0.227313  0.453996  1
  O  O16  1  0.453996  0.464418  0.227313  1
  O  O17  1  0.226683  0.272687  0.737105  1
  O  O18  1  0.489578  0.762895  0.035582  1
  O  O19  1  0.273317  0.010422  0.046004  1
  O  O20  1  0.272687  0.737105  0.226683  1
  O  O21  1  0.035582  0.489578  0.762895  1
  O  O22  1  0.010422  0.046004  0.273317  1
  O  O23  1  0.227313  0.453996  0.464418  1
  Sc  Sc24  1  0.750000  0.785996  0.035996  1
  Sc  Sc25  1  0.464004  0.250000  0.714004  1
  Sc  Sc26  1  0.714004  0.464004  0.250000  1
  Sc  Sc27  1  0.035996  0.750000  0.785996  1
  Sc  Sc28  1  0.785996  0.035996  0.750000  1
  Sc  Sc29  1  0.250000  0.714004  0.464004  1
  Sc  Sc30  1  0.750000  0.286050  0.536050  1
  Sc  Sc31  1  0.963950  0.250000  0.213950  1
  Sc  Sc32  1  0.213950  0.963950  0.250000  1
  Sc  Sc33  1  0.536050  0.750000  0.286050  1
  Sc  Sc34  1  0.286050  0.536050  0.750000  1
  Sc  Sc35  1  0.250000  0.213950  0.963950  1
  Sc  Sc36  1  0.000089  0.500000  0.000000  1
  Sc  Sc37  1  0.500000  0.000000  0.000089  1
  Sc  Sc38  1  0.000000  0.000089  0.500000  1
  Sc  Sc39  1  0.499911  0.499911  0.499911  1
