# generated using pymatgen
data_Ti5Si3
_symmetry_space_group_name_H-M   'P 1'
_cell_length_a   7.46778631
_cell_length_b   7.46778632
_cell_length_c   5.13278636
_cell_angle_alpha   90.00000000
_cell_angle_beta   90.00000000
_cell_angle_gamma   120.00000001
_symmetry_Int_Tables_number   1
_chemical_formula_structural   Ti5Si3
_chemical_formula_sum   'Ti10 Si6'
_cell_volume   247.89489574
_cell_formula_units_Z   2
loop_
 _symmetry_equiv_pos_site_id
 _symmetry_equiv_pos_as_xyz
  1  'x, y, z'
loop_
 _atom_site_type_symbol
 _atom_site_label
 _atom_site_symmetry_multiplicity
 _atom_site_fract_x
 _atom_site_fract_y
 _atom_site_fract_z
 _atom_site_occupancy
  Si  Si0  1  0.608003  0.000000  0.250000  1
  Si  Si1  1  0.608003  0.608003  0.750000  1
  Si  Si2  1  0.000000  0.391997  0.750000  1
  Si  Si3  1  0.000000  0.608003  0.250000  1
  Si  Si4  1  0.391997  0.391997  0.250000  1
  Si  Si5  1  0.391997  0.000000  0.750000  1
  Ti  Ti6  1  0.333333  0.666667  0.000000  1
  Ti  Ti7  1  0.666667  0.333333  0.500000  1
  Ti  Ti8  1  0.666667  0.333333  0.000000  1
  Ti  Ti9  1  0.333333  0.666667  0.500000  1
  Ti  Ti10  1  0.250629  0.000000  0.250000  1
  Ti  Ti11  1  0.250629  0.250629  0.750000  1
  Ti  Ti12  1  0.000000  0.749371  0.750000  1
  Ti  Ti13  1  0.000000  0.250629  0.250000  1
  Ti  Ti14  1  0.749371  0.749371  0.250000  1
  Ti  Ti15  1  0.749371  0.000000  0.750000  1
