# generated using pymatgen
data_MnSiIr
_symmetry_space_group_name_H-M   'P 1'
_cell_length_a   3.86284493
_cell_length_b   6.05959852
_cell_length_c   7.24399610
_cell_angle_alpha   90.00000000
_cell_angle_beta   90.00000000
_cell_angle_gamma   90.00000000
_symmetry_Int_Tables_number   1
_chemical_formula_structural   MnSiIr
_chemical_formula_sum   'Mn4 Si4 Ir4'
_cell_volume   169.56231328
_cell_formula_units_Z   4
loop_
 _symmetry_equiv_pos_site_id
 _symmetry_equiv_pos_as_xyz
  1  'x, y, z'
loop_
 _atom_site_type_symbol
 _atom_site_label
 _atom_site_symmetry_multiplicity
 _atom_site_fract_x
 _atom_site_fract_y
 _atom_site_fract_z
 _atom_site_occupancy
  Si  Si0  1  0.250000  0.268259  0.875948  1
  Si  Si1  1  0.750000  0.731741  0.124052  1
  Si  Si2  1  0.250000  0.768259  0.624052  1
  Si  Si3  1  0.750000  0.231741  0.375948  1
  Mn  Mn4  1  0.750000  0.968929  0.820689  1
  Mn  Mn5  1  0.250000  0.031071  0.179311  1
  Mn  Mn6  1  0.750000  0.468929  0.679311  1
  Mn  Mn7  1  0.250000  0.531071  0.320689  1
  Ir  Ir8  1  0.250000  0.663934  0.937512  1
  Ir  Ir9  1  0.750000  0.336066  0.062488  1
  Ir  Ir10  1  0.250000  0.163934  0.562488  1
  Ir  Ir11  1  0.750000  0.836066  0.437512  1
