# generated using pymatgen
data_Al2S3
_symmetry_space_group_name_H-M   'P 1'
_cell_length_a   6.55980783
_cell_length_b   6.55980782
_cell_length_c   18.04880101
_cell_angle_alpha   90.00000000
_cell_angle_beta   90.00000000
_cell_angle_gamma   120.00000000
_symmetry_Int_Tables_number   1
_chemical_formula_structural   Al2S3
_chemical_formula_sum   'Al12 S18'
_cell_volume   672.60675079
_cell_formula_units_Z   6
loop_
 _symmetry_equiv_pos_site_id
 _symmetry_equiv_pos_as_xyz
  1  'x, y, z'
loop_
 _atom_site_type_symbol
 _atom_site_label
 _atom_site_symmetry_multiplicity
 _atom_site_fract_x
 _atom_site_fract_y
 _atom_site_fract_z
 _atom_site_occupancy
  Al  Al0  1  0.005449  0.674087  0.371965  1
  Al  Al1  1  0.331362  0.005449  0.538631  1
  Al  Al2  1  0.674087  0.668638  0.205298  1
  Al  Al3  1  0.325912  0.331362  0.705298  1
  Al  Al4  1  0.668638  0.994551  0.038631  1
  Al  Al5  1  0.994551  0.325912  0.871965  1
  Al  Al6  1  0.654968  0.636381  0.543599  1
  Al  Al7  1  0.018587  0.654968  0.710266  1
  Al  Al8  1  0.636381  0.981413  0.376933  1
  Al  Al9  1  0.363619  0.018587  0.876933  1
  Al  Al10  1  0.981413  0.345032  0.210266  1
  Al  Al11  1  0.345032  0.363619  0.043599  1
  S  S12  1  0.653958  0.672549  0.997771  1
  S  S13  1  0.981409  0.653958  0.164437  1
  S  S14  1  0.672549  0.018591  0.831104  1
  S  S15  1  0.327451  0.981409  0.331104  1
  S  S16  1  0.018591  0.346042  0.664437  1
  S  S17  1  0.346042  0.327451  0.497771  1
  S  S18  1  0.655876  0.975226  0.504594  1
  S  S19  1  0.680649  0.655876  0.671261  1
  S  S20  1  0.975226  0.319351  0.337927  1
  S  S21  1  0.024774  0.680649  0.837927  1
  S  S22  1  0.319351  0.344124  0.171261  1
  S  S23  1  0.344124  0.024774  0.004594  1
  S  S24  1  0.998865  0.666802  0.500291  1
  S  S25  1  0.332063  0.998865  0.666958  1
  S  S26  1  0.666802  0.667937  0.333624  1
  S  S27  1  0.333199  0.332063  0.833624  1
  S  S28  1  0.667937  0.001135  0.166958  1
  S  S29  1  0.001135  0.333199  0.000291  1
