# generated using pymatgen
data_AgClO4
_symmetry_space_group_name_H-M   'P 1'
_cell_length_a   4.97733084
_cell_length_b   4.97733084
_cell_length_c   4.97733084
_cell_angle_alpha   92.57141165
_cell_angle_beta   118.52666693
_cell_angle_gamma   118.52666691
_symmetry_Int_Tables_number   1
_chemical_formula_structural   AgClO4
_chemical_formula_sum   'Ag1 Cl1 O4'
_cell_volume   89.03627934
_cell_formula_units_Z   1
loop_
 _symmetry_equiv_pos_site_id
 _symmetry_equiv_pos_as_xyz
  1  'x, y, z'
loop_
 _atom_site_type_symbol
 _atom_site_label
 _atom_site_symmetry_multiplicity
 _atom_site_fract_x
 _atom_site_fract_y
 _atom_site_fract_z
 _atom_site_occupancy
  O  O0  1  0.669820  0.960360  0.960360  1
  O  O1  1  0.000000  0.039640  0.709460  1
  O  O2  1  0.330180  0.290540  0.290540  1
  O  O3  1  0.000000  0.709460  0.039640  1
  Cl  Cl4  1  0.000000  0.000000  0.000000  1
  Ag  Ag5  1  0.000000  0.500000  0.500000  1
