# generated using pymatgen
data_Rb3CuO2
_symmetry_space_group_name_H-M   'P 1'
_cell_length_a   6.82682658
_cell_length_b   9.43609846
_cell_length_c   9.80446850
_cell_angle_alpha   90.00000000
_cell_angle_beta   90.00000000
_cell_angle_gamma   110.06058302
_symmetry_Int_Tables_number   1
_chemical_formula_structural   Rb3CuO2
_chemical_formula_sum   'Rb12 Cu4 O8'
_cell_volume   593.27191826
_cell_formula_units_Z   4
loop_
 _symmetry_equiv_pos_site_id
 _symmetry_equiv_pos_as_xyz
  1  'x, y, z'
loop_
 _atom_site_type_symbol
 _atom_site_label
 _atom_site_symmetry_multiplicity
 _atom_site_fract_x
 _atom_site_fract_y
 _atom_site_fract_z
 _atom_site_occupancy
  Rb  Rb0  1  0.072354  0.312715  0.291753  1
  Rb  Rb1  1  0.427646  0.187285  0.791753  1
  Rb  Rb2  1  0.927646  0.687285  0.708247  1
  Rb  Rb3  1  0.572354  0.812715  0.208247  1
  Rb  Rb4  1  0.138252  0.874971  0.023839  1
  Rb  Rb5  1  0.361748  0.625029  0.523839  1
  Rb  Rb6  1  0.861748  0.125029  0.976161  1
  Rb  Rb7  1  0.638252  0.374971  0.476161  1
  Rb  Rb8  1  0.241580  0.995187  0.465746  1
  Rb  Rb9  1  0.258420  0.504813  0.965746  1
  Rb  Rb10  1  0.758420  0.004813  0.534254  1
  Rb  Rb11  1  0.741580  0.495187  0.034254  1
  Cu  Cu12  1  0.964364  0.673102  0.320659  1
  Cu  Cu13  1  0.535636  0.826898  0.820659  1
  Cu  Cu14  1  0.035636  0.326898  0.679341  1
  Cu  Cu15  1  0.464364  0.173102  0.179341  1
  O  O16  1  0.707487  0.777677  0.939069  1
  O  O17  1  0.792513  0.722323  0.439069  1
  O  O18  1  0.292513  0.222323  0.060931  1
  O  O19  1  0.207487  0.277677  0.560931  1
  O  O20  1  0.629618  0.122169  0.301562  1
  O  O21  1  0.870382  0.377831  0.801562  1
  O  O22  1  0.370382  0.877831  0.698438  1
  O  O23  1  0.129618  0.622169  0.198438  1
