# generated using pymatgen
data_CoBW
_symmetry_space_group_name_H-M   'P 1'
_cell_length_a   3.25498555
_cell_length_b   5.74148979
_cell_length_c   6.62971722
_cell_angle_alpha   90.00000000
_cell_angle_beta   90.00000000
_cell_angle_gamma   90.00000000
_symmetry_Int_Tables_number   1
_chemical_formula_structural   CoBW
_chemical_formula_sum   'Co4 B4 W4'
_cell_volume   123.89924686
_cell_formula_units_Z   4
loop_
 _symmetry_equiv_pos_site_id
 _symmetry_equiv_pos_as_xyz
  1  'x, y, z'
loop_
 _atom_site_type_symbol
 _atom_site_label
 _atom_site_symmetry_multiplicity
 _atom_site_fract_x
 _atom_site_fract_y
 _atom_site_fract_z
 _atom_site_occupancy
  B  B0  1  0.750000  0.230735  0.374704  1
  B  B1  1  0.250000  0.769265  0.625296  1
  B  B2  1  0.750000  0.730735  0.125296  1
  B  B3  1  0.250000  0.269265  0.874704  1
  Co  Co4  1  0.750000  0.857002  0.442172  1
  Co  Co5  1  0.250000  0.142998  0.557828  1
  Co  Co6  1  0.750000  0.357002  0.057828  1
  Co  Co7  1  0.250000  0.642998  0.942172  1
  W  W8  1  0.750000  0.972210  0.825128  1
  W  W9  1  0.250000  0.027790  0.174872  1
  W  W10  1  0.750000  0.472210  0.674872  1
  W  W11  1  0.250000  0.527790  0.325128  1
