# generated using pymatgen
data_Ca(MnSb)2
_symmetry_space_group_name_H-M   'P 1'
_cell_length_a   4.45625368
_cell_length_b   4.45625368
_cell_length_c   7.65095437
_cell_angle_alpha   90.00000000
_cell_angle_beta   90.00000000
_cell_angle_gamma   120.00000002
_symmetry_Int_Tables_number   1
_chemical_formula_structural   Ca(MnSb)2
_chemical_formula_sum   'Ca1 Mn2 Sb2'
_cell_volume   131.57884049
_cell_formula_units_Z   1
loop_
 _symmetry_equiv_pos_site_id
 _symmetry_equiv_pos_as_xyz
  1  'x, y, z'
loop_
 _atom_site_type_symbol
 _atom_site_label
 _atom_site_symmetry_multiplicity
 _atom_site_fract_x
 _atom_site_fract_y
 _atom_site_fract_z
 _atom_site_occupancy
  Ca  Ca0  1  0.000000  0.000000  0.000000  1
  Mn  Mn1  1  0.333333  0.666667  0.618329  1
  Mn  Mn2  1  0.666667  0.333333  0.381671  1
  Sb  Sb3  1  0.333333  0.666667  0.255696  1
  Sb  Sb4  1  0.666667  0.333333  0.744304  1
