# generated using pymatgen
data_Ta2Co
_symmetry_space_group_name_H-M   'P 1'
_cell_length_a   4.97679582
_cell_length_b   4.99948046
_cell_length_c   4.99948046
_cell_angle_alpha   75.65639290
_cell_angle_beta   60.14998285
_cell_angle_gamma   60.14998280
_symmetry_Int_Tables_number   1
_chemical_formula_structural   Ta2Co
_chemical_formula_sum   'Ta4 Co2'
_cell_volume   93.57710297
_cell_formula_units_Z   2
loop_
 _symmetry_equiv_pos_site_id
 _symmetry_equiv_pos_as_xyz
  1  'x, y, z'
loop_
 _atom_site_type_symbol
 _atom_site_label
 _atom_site_symmetry_multiplicity
 _atom_site_fract_x
 _atom_site_fract_y
 _atom_site_fract_z
 _atom_site_occupancy
  Co  Co0  1  0.250000  0.000000  0.000000  1
  Co  Co1  1  0.750000  0.000000  0.000000  1
  Ta  Ta2  1  0.160989  0.500000  0.178022  1
  Ta  Ta3  1  0.339011  0.821978  0.500000  1
  Ta  Ta4  1  0.660989  0.178022  0.500000  1
  Ta  Ta5  1  0.839011  0.500000  0.821978  1
