# generated using pymatgen
data_NaNiF3
_symmetry_space_group_name_H-M   'P 1'
_cell_length_a   5.41325853
_cell_length_b   5.59947519
_cell_length_c   7.76890591
_cell_angle_alpha   90.00000000
_cell_angle_beta   90.00000000
_cell_angle_gamma   90.00000000
_symmetry_Int_Tables_number   1
_chemical_formula_structural   NaNiF3
_chemical_formula_sum   'Na4 Ni4 F12'
_cell_volume   235.48646771
_cell_formula_units_Z   4
loop_
 _symmetry_equiv_pos_site_id
 _symmetry_equiv_pos_as_xyz
  1  'x, y, z'
loop_
 _atom_site_type_symbol
 _atom_site_label
 _atom_site_symmetry_multiplicity
 _atom_site_fract_x
 _atom_site_fract_y
 _atom_site_fract_z
 _atom_site_occupancy
  F  F0  1  0.697179  0.299134  0.446109  1
  F  F1  1  0.197179  0.200866  0.553891  1
  F  F2  1  0.802821  0.799134  0.053891  1
  F  F3  1  0.302821  0.700866  0.946109  1
  F  F4  1  0.302821  0.700866  0.553891  1
  F  F5  1  0.802821  0.799134  0.446109  1
  F  F6  1  0.197179  0.200866  0.946109  1
  F  F7  1  0.697179  0.299134  0.053891  1
  F  F8  1  0.103339  0.464641  0.250000  1
  F  F9  1  0.603339  0.035359  0.750000  1
  F  F10  1  0.396661  0.964641  0.250000  1
  F  F11  1  0.896661  0.535359  0.750000  1
  Na  Na12  1  0.015788  0.942818  0.750000  1
  Na  Na13  1  0.515788  0.557182  0.250000  1
  Na  Na14  1  0.484212  0.442818  0.750000  1
  Na  Na15  1  0.984212  0.057182  0.250000  1
  Ni  Ni16  1  0.500000  0.000000  0.500000  1
  Ni  Ni17  1  0.000000  0.500000  0.500000  1
  Ni  Ni18  1  0.000000  0.500000  0.000000  1
  Ni  Ni19  1  0.500000  0.000000  0.000000  1
