# generated using pymatgen
data_SiO2
_symmetry_space_group_name_H-M   'P 1'
_cell_length_a   5.05186371
_cell_length_b   5.05228454
_cell_length_c   5.13582199
_cell_angle_alpha   119.53417744
_cell_angle_beta   119.55136741
_cell_angle_gamma   89.99736465
_symmetry_Int_Tables_number   1
_chemical_formula_structural   SiO2
_chemical_formula_sum   'Si2 O4'
_cell_volume   93.95891867
_cell_formula_units_Z   2
loop_
 _symmetry_equiv_pos_site_id
 _symmetry_equiv_pos_as_xyz
  1  'x, y, z'
loop_
 _atom_site_type_symbol
 _atom_site_label
 _atom_site_symmetry_multiplicity
 _atom_site_fract_x
 _atom_site_fract_y
 _atom_site_fract_z
 _atom_site_occupancy
  Si  Si0  1  0.004042  0.997981  0.998087  1
  Si  Si1  1  0.253937  0.747930  0.497858  1
  O  O2  1  0.220394  0.373128  0.251214  1
  O  O3  1  0.628869  0.964329  0.751383  1
  O  O4  1  0.125438  0.784461  0.744709  1
  O  O5  1  0.040783  0.871777  0.246811  1
