# generated using pymatgen
data_Y2Si2O7
_symmetry_space_group_name_H-M   'P 1'
_cell_length_a   4.78859943
_cell_length_b   5.71650829
_cell_length_c   5.71650830
_cell_angle_alpha   105.34142386
_cell_angle_beta   97.17930328
_cell_angle_gamma   97.17930319
_symmetry_Int_Tables_number   1
_chemical_formula_structural   Y2Si2O7
_chemical_formula_sum   'Y2 Si2 O7'
_cell_volume   147.66830732
_cell_formula_units_Z   1
loop_
 _symmetry_equiv_pos_site_id
 _symmetry_equiv_pos_as_xyz
  1  'x, y, z'
loop_
 _atom_site_type_symbol
 _atom_site_label
 _atom_site_symmetry_multiplicity
 _atom_site_fract_x
 _atom_site_fract_y
 _atom_site_fract_z
 _atom_site_occupancy
  O  O0  1  0.778979  0.914233  0.616629  1
  O  O1  1  0.221021  0.383371  0.085767  1
  O  O2  1  0.221021  0.085767  0.383371  1
  O  O3  1  0.778979  0.616629  0.914233  1
  O  O4  1  0.500000  0.000000  0.000000  1
  O  O5  1  0.287167  0.619884  0.619884  1
  O  O6  1  0.712833  0.380116  0.380116  1
  Si  Si7  1  0.411323  0.217339  0.217339  1
  Si  Si8  1  0.588677  0.782661  0.782661  1
  Y  Y9  1  0.000000  0.307435  0.692565  1
  Y  Y10  1  0.000000  0.692565  0.307435  1
