# generated using pymatgen
data_Fe2Mo3O8
_symmetry_space_group_name_H-M   'P 1'
_cell_length_a   6.31316699
_cell_length_b   6.31316649
_cell_length_c   9.42398751
_cell_angle_alpha   90.00000000
_cell_angle_beta   90.00000000
_cell_angle_gamma   120.00000268
_symmetry_Int_Tables_number   1
_chemical_formula_structural   Fe2Mo3O8
_chemical_formula_sum   'Fe4 Mo6 O16'
_cell_volume   325.28185757
_cell_formula_units_Z   2
loop_
 _symmetry_equiv_pos_site_id
 _symmetry_equiv_pos_as_xyz
  1  'x, y, z'
loop_
 _atom_site_type_symbol
 _atom_site_label
 _atom_site_symmetry_multiplicity
 _atom_site_fract_x
 _atom_site_fract_y
 _atom_site_fract_z
 _atom_site_occupancy
  O  O0  1  0.824848  0.649696  0.142775  1
  O  O1  1  0.175152  0.824847  0.642776  1
  O  O2  1  0.649695  0.824847  0.642776  1
  O  O3  1  0.350305  0.175152  0.142775  1
  O  O4  1  0.824848  0.175152  0.142775  1
  O  O5  1  0.175153  0.350305  0.642776  1
  O  O6  1  0.511929  0.023857  0.884389  1
  O  O7  1  0.488072  0.511929  0.384389  1
  O  O8  1  0.023857  0.511929  0.384389  1
  O  O9  1  0.976144  0.488072  0.884389  1
  O  O10  1  0.000000  0.000000  0.352923  1
  O  O11  1  0.000000  0.000000  0.852923  1
  O  O12  1  0.333333  0.666666  0.122034  1
  O  O13  1  0.511928  0.488072  0.884389  1
  O  O14  1  0.488072  0.976144  0.384389  1
  O  O15  1  0.666667  0.333333  0.622034  1
  Fe  Fe16  1  0.333333  0.666666  0.917327  1
  Fe  Fe17  1  0.666667  0.333333  0.417327  1
  Fe  Fe18  1  0.333333  0.666666  0.540881  1
  Fe  Fe19  1  0.666667  0.333333  0.040881  1
  Mo  Mo20  1  0.164711  0.329422  0.245914  1
  Mo  Mo21  1  0.835288  0.164711  0.745914  1
  Mo  Mo22  1  0.329423  0.164711  0.745914  1
  Mo  Mo23  1  0.670577  0.835288  0.245914  1
  Mo  Mo24  1  0.164711  0.835288  0.245914  1
  Mo  Mo25  1  0.835289  0.670577  0.745914  1
