# generated using pymatgen
data_K2MnF6
_symmetry_space_group_name_H-M   'P 1'
_cell_length_a   5.91751051
_cell_length_b   5.91751051
_cell_length_c   5.91751052
_cell_angle_alpha   59.99999996
_cell_angle_beta   59.99999996
_cell_angle_gamma   60.00000000
_symmetry_Int_Tables_number   1
_chemical_formula_structural   K2MnF6
_chemical_formula_sum   'K2 Mn1 F6'
_cell_volume   146.52175670
_cell_formula_units_Z   1
loop_
 _symmetry_equiv_pos_site_id
 _symmetry_equiv_pos_as_xyz
  1  'x, y, z'
loop_
 _atom_site_type_symbol
 _atom_site_label
 _atom_site_symmetry_multiplicity
 _atom_site_fract_x
 _atom_site_fract_y
 _atom_site_fract_z
 _atom_site_occupancy
  F  F0  1  0.220596  0.779404  0.779404  1
  F  F1  1  0.220596  0.779404  0.220596  1
  F  F2  1  0.779404  0.220596  0.779404  1
  F  F3  1  0.779404  0.220596  0.220596  1
  F  F4  1  0.779404  0.779404  0.220596  1
  F  F5  1  0.220596  0.220596  0.779404  1
  K  K6  1  0.750000  0.750000  0.750000  1
  K  K7  1  0.250000  0.250000  0.250000  1
  Mn  Mn8  1  0.000000  0.000000  0.000000  1
