# generated using pymatgen
data_V3O5
_symmetry_space_group_name_H-M   'P 1'
_cell_length_a   5.18932468
_cell_length_b   7.10674774
_cell_length_c   9.98955067
_cell_angle_alpha   109.17001973
_cell_angle_beta   90.00000000
_cell_angle_gamma   90.00000000
_symmetry_Int_Tables_number   1
_chemical_formula_structural   V3O5
_chemical_formula_sum   'V12 O20'
_cell_volume   347.97807294
_cell_formula_units_Z   4
loop_
 _symmetry_equiv_pos_site_id
 _symmetry_equiv_pos_as_xyz
  1  'x, y, z'
loop_
 _atom_site_type_symbol
 _atom_site_label
 _atom_site_symmetry_multiplicity
 _atom_site_fract_x
 _atom_site_fract_y
 _atom_site_fract_z
 _atom_site_occupancy
  V  V0  1  0.503523  0.909463  0.627696  1
  V  V1  1  0.497535  0.410189  0.630514  1
  V  V2  1  0.497535  0.089811  0.369486  1
  V  V3  1  0.503523  0.590537  0.372304  1
  V  V4  1  0.997181  0.591317  0.871790  1
  V  V5  1  0.997181  0.908683  0.128210  1
  V  V6  1  0.001011  0.409242  0.131139  1
  V  V7  1  0.001011  0.090758  0.868861  1
  V  V8  1  0.997848  0.998453  0.498773  1
  V  V9  1  0.997848  0.501547  0.501227  1
  V  V10  1  0.503064  0.998621  0.998793  1
  V  V11  1  0.503064  0.501379  0.001207  1
  O  O12  1  0.660542  0.525986  0.186064  1
  O  O13  1  0.355384  0.033840  0.198794  1
  O  O14  1  0.355384  0.466160  0.801206  1
  O  O15  1  0.660542  0.974014  0.813936  1
  O  O16  1  0.151713  0.866301  0.920799  1
  O  O17  1  0.849637  0.140714  0.078854  1
  O  O18  1  0.849637  0.359286  0.921146  1
  O  O19  1  0.151713  0.633699  0.079201  1
  O  O20  1  0.840130  0.523666  0.686294  1
  O  O21  1  0.840130  0.976334  0.313706  1
  O  O22  1  0.142712  0.035959  0.698495  1
  O  O23  1  0.142712  0.464041  0.301505  1
  O  O24  1  0.295999  0.250000  0.000000  1
  O  O25  1  0.688867  0.750000  0.000000  1
  O  O26  1  0.649697  0.359641  0.421287  1
  O  O27  1  0.348981  0.863928  0.420061  1
  O  O28  1  0.348981  0.636072  0.579939  1
  O  O29  1  0.649697  0.140359  0.578713  1
  O  O30  1  0.204024  0.250000  0.500000  1
  O  O31  1  0.813191  0.750000  0.500000  1
