# generated using pymatgen
data_MgSiO3
_symmetry_space_group_name_H-M   'P 1'
_cell_length_a   5.28528299
_cell_length_b   6.75913182
_cell_length_c   6.75913090
_cell_angle_alpha   80.99122232
_cell_angle_beta   72.17304947
_cell_angle_gamma   72.17304435
_symmetry_Int_Tables_number   1
_chemical_formula_structural   MgSiO3
_chemical_formula_sum   'Mg4 Si4 O12'
_cell_volume   218.30485848
_cell_formula_units_Z   4
loop_
 _symmetry_equiv_pos_site_id
 _symmetry_equiv_pos_as_xyz
  1  'x, y, z'
loop_
 _atom_site_type_symbol
 _atom_site_label
 _atom_site_symmetry_multiplicity
 _atom_site_fract_x
 _atom_site_fract_y
 _atom_site_fract_z
 _atom_site_occupancy
  Mg  Mg0  1  0.750000  0.737485  0.262515  1
  Mg  Mg1  1  0.750000  0.100162  0.899838  1
  Mg  Mg2  1  0.250000  0.262515  0.737485  1
  Mg  Mg3  1  0.250000  0.899838  0.100162  1
  Si  Si4  1  0.198493  0.380287  0.200295  1
  Si  Si5  1  0.301507  0.799705  0.619713  1
  Si  Si6  1  0.698493  0.200295  0.380287  1
  Si  Si7  1  0.801507  0.619713  0.799705  1
  O  O8  1  0.365721  0.308331  0.384046  1
  O  O9  1  0.865721  0.384046  0.308331  1
  O  O10  1  0.663559  0.133848  0.623300  1
  O  O11  1  0.836441  0.376700  0.866152  1
  O  O12  1  0.634279  0.691669  0.615954  1
  O  O13  1  0.332675  0.210841  0.024656  1
  O  O14  1  0.134279  0.615954  0.691669  1
  O  O15  1  0.667325  0.789159  0.975344  1
  O  O16  1  0.163559  0.623300  0.133848  1
  O  O17  1  0.336441  0.866152  0.376700  1
  O  O18  1  0.832675  0.024656  0.210841  1
  O  O19  1  0.167325  0.975344  0.789159  1
