# generated using pymatgen
data_FeSi
_symmetry_space_group_name_H-M   'P 1'
_cell_length_a   4.45020610
_cell_length_b   4.45020610
_cell_length_c   4.45020610
_cell_angle_alpha   90.00000000
_cell_angle_beta   90.00000000
_cell_angle_gamma   90.00000000
_symmetry_Int_Tables_number   1
_chemical_formula_structural   FeSi
_chemical_formula_sum   'Fe4 Si4'
_cell_volume   88.13336945
_cell_formula_units_Z   4
loop_
 _symmetry_equiv_pos_site_id
 _symmetry_equiv_pos_as_xyz
  1  'x, y, z'
loop_
 _atom_site_type_symbol
 _atom_site_label
 _atom_site_symmetry_multiplicity
 _atom_site_fract_x
 _atom_site_fract_y
 _atom_site_fract_z
 _atom_site_occupancy
  Si  Si0  1  0.159199  0.340801  0.659199  1
  Si  Si1  1  0.340801  0.659199  0.159199  1
  Si  Si2  1  0.659199  0.159199  0.340801  1
  Si  Si3  1  0.840801  0.840801  0.840801  1
  Fe  Fe4  1  0.863695  0.636305  0.363695  1
  Fe  Fe5  1  0.636305  0.363695  0.863695  1
  Fe  Fe6  1  0.363695  0.863695  0.636305  1
  Fe  Fe7  1  0.136305  0.136305  0.136305  1
