# generated using pymatgen
data_V5P3N
_symmetry_space_group_name_H-M   'P 1'
_cell_length_a   6.84816925
_cell_length_b   6.84816925
_cell_length_c   5.12748779
_cell_angle_alpha   90.00000000
_cell_angle_beta   90.00000000
_cell_angle_gamma   119.99999996
_symmetry_Int_Tables_number   1
_chemical_formula_structural   V5P3N
_chemical_formula_sum   'V10 P6 N2'
_cell_volume   208.24962931
_cell_formula_units_Z   2
loop_
 _symmetry_equiv_pos_site_id
 _symmetry_equiv_pos_as_xyz
  1  'x, y, z'
loop_
 _atom_site_type_symbol
 _atom_site_label
 _atom_site_symmetry_multiplicity
 _atom_site_fract_x
 _atom_site_fract_y
 _atom_site_fract_z
 _atom_site_occupancy
  N  N0  1  0.000000  0.000000  0.000000  1
  N  N1  1  0.000000  0.000000  0.500000  1
  P  P2  1  0.000000  0.595357  0.250000  1
  P  P3  1  0.000000  0.404643  0.750000  1
  P  P4  1  0.595357  0.595357  0.750000  1
  P  P5  1  0.595357  0.000000  0.250000  1
  P  P6  1  0.404643  0.404643  0.250000  1
  P  P7  1  0.404643  0.000000  0.750000  1
  V  V8  1  0.768683  0.768683  0.250000  1
  V  V9  1  0.768683  0.000000  0.750000  1
  V  V10  1  0.000000  0.231317  0.250000  1
  V  V11  1  0.000000  0.768683  0.750000  1
  V  V12  1  0.231317  0.231317  0.750000  1
  V  V13  1  0.231317  0.000000  0.250000  1
  V  V14  1  0.333333  0.666667  0.500000  1
  V  V15  1  0.666667  0.333333  0.000000  1
  V  V16  1  0.666667  0.333333  0.500000  1
  V  V17  1  0.333333  0.666667  0.000000  1
