# generated using pymatgen
data_Al2IrRh
_symmetry_space_group_name_H-M   'P 1'
_cell_length_a   4.26485020
_cell_length_b   4.26485555
_cell_length_c   4.26485876
_cell_angle_alpha   59.99996907
_cell_angle_beta   60.00006066
_cell_angle_gamma   60.00000757
_symmetry_Int_Tables_number   1
_chemical_formula_structural   Al2IrRh
_chemical_formula_sum   'Al2 Ir1 Rh1'
_cell_volume   54.85268437
_cell_formula_units_Z   1
loop_
 _symmetry_equiv_pos_site_id
 _symmetry_equiv_pos_as_xyz
  1  'x, y, z'
loop_
 _atom_site_type_symbol
 _atom_site_label
 _atom_site_symmetry_multiplicity
 _atom_site_fract_x
 _atom_site_fract_y
 _atom_site_fract_z
 _atom_site_occupancy
  Al  Al0  1  0.500001  0.500001  0.500001  1
  Al  Al1  1  0.000001  1.000000  1.000000  1
  Ir  Ir2  1  0.250000  0.250000  0.250000  1
  Rh  Rh3  1  0.749999  0.750000  0.750001  1
