# generated using pymatgen
data_NaSi2N3
_symmetry_space_group_name_H-M   'P 1'
_cell_length_a   4.91306476
_cell_length_b   5.50818605
_cell_length_c   5.50818605
_cell_angle_alpha   119.67211868
_cell_angle_beta   90.00000000
_cell_angle_gamma   90.00000000
_symmetry_Int_Tables_number   1
_chemical_formula_structural   NaSi2N3
_chemical_formula_sum   'Na2 Si4 N6'
_cell_volume   129.51669371
_cell_formula_units_Z   2
loop_
 _symmetry_equiv_pos_site_id
 _symmetry_equiv_pos_as_xyz
  1  'x, y, z'
loop_
 _atom_site_type_symbol
 _atom_site_label
 _atom_site_symmetry_multiplicity
 _atom_site_fract_x
 _atom_site_fract_y
 _atom_site_fract_z
 _atom_site_occupancy
  N  N0  1  0.969105  0.773636  0.773636  1
  N  N1  1  0.469105  0.226364  0.226364  1
  N  N2  1  0.359188  0.655188  0.094083  1
  N  N3  1  0.359188  0.094083  0.655188  1
  N  N4  1  0.859188  0.905917  0.344812  1
  N  N5  1  0.859188  0.344812  0.905917  1
  Na  Na6  1  0.486075  0.662759  0.662759  1
  Na  Na7  1  0.986075  0.337241  0.337241  1
  Si  Si8  1  0.011722  0.017274  0.675965  1
  Si  Si9  1  0.511722  0.982726  0.324035  1
  Si  Si10  1  0.511722  0.324035  0.982726  1
  Si  Si11  1  0.011722  0.675965  0.017274  1
