# generated using pymatgen
data_Y2Al3Si2
_symmetry_space_group_name_H-M   'P 1'
_cell_length_a   4.05117656
_cell_length_b   5.48591711
_cell_length_c   6.63690714
_cell_angle_alpha   100.23600642
_cell_angle_beta   90.00000000
_cell_angle_gamma   111.66839688
_symmetry_Int_Tables_number   1
_chemical_formula_structural   Y2Al3Si2
_chemical_formula_sum   'Y2 Al3 Si2'
_cell_volume   134.54906901
_cell_formula_units_Z   1
loop_
 _symmetry_equiv_pos_site_id
 _symmetry_equiv_pos_as_xyz
  1  'x, y, z'
loop_
 _atom_site_type_symbol
 _atom_site_label
 _atom_site_symmetry_multiplicity
 _atom_site_fract_x
 _atom_site_fract_y
 _atom_site_fract_z
 _atom_site_occupancy
  Al  Al0  1  0.694284  0.388568  0.866685  1
  Al  Al1  1  0.000000  0.000000  0.000000  1
  Al  Al2  1  0.305716  0.611432  0.133315  1
  Si  Si3  1  0.907211  0.814421  0.359619  1
  Si  Si4  1  0.092789  0.185579  0.640381  1
  Y  Y5  1  0.380233  0.760466  0.678126  1
  Y  Y6  1  0.619767  0.239534  0.321874  1
