# generated using pymatgen
data_Mg(AlSe2)2
_symmetry_space_group_name_H-M   'P 1'
_cell_length_a   13.84717321
_cell_length_b   13.84717321
_cell_length_c   13.84717322
_cell_angle_alpha   16.28401602
_cell_angle_beta   16.28401601
_cell_angle_gamma   16.28401601
_symmetry_Int_Tables_number   1
_chemical_formula_structural   Mg(AlSe2)2
_chemical_formula_sum   'Mg1 Al2 Se4'
_cell_volume   182.00358432
_cell_formula_units_Z   1
loop_
 _symmetry_equiv_pos_site_id
 _symmetry_equiv_pos_as_xyz
  1  'x, y, z'
loop_
 _atom_site_type_symbol
 _atom_site_label
 _atom_site_symmetry_multiplicity
 _atom_site_fract_x
 _atom_site_fract_y
 _atom_site_fract_z
 _atom_site_occupancy
  Mg  Mg0  1  0.000000  0.000000  0.000000  1
  Al  Al1  1  0.241863  0.241863  0.241863  1
  Al  Al2  1  0.758137  0.758137  0.758137  1
  Se  Se3  1  0.117625  0.117625  0.117625  1
  Se  Se4  1  0.882375  0.882375  0.882375  1
  Se  Se5  1  0.298263  0.298263  0.298263  1
  Se  Se6  1  0.701737  0.701737  0.701737  1
