# generated using pymatgen
data_MnCoSi
_symmetry_space_group_name_H-M   'P 1'
_cell_length_a   3.76738462
_cell_length_b   3.76738341
_cell_length_c   3.76738415
_cell_angle_alpha   60.00005621
_cell_angle_beta   60.00001720
_cell_angle_gamma   60.00001933
_symmetry_Int_Tables_number   1
_chemical_formula_structural   MnCoSi
_chemical_formula_sum   'Mn1 Co1 Si1'
_cell_volume   37.80985345
_cell_formula_units_Z   1
loop_
 _symmetry_equiv_pos_site_id
 _symmetry_equiv_pos_as_xyz
  1  'x, y, z'
loop_
 _atom_site_type_symbol
 _atom_site_label
 _atom_site_symmetry_multiplicity
 _atom_site_fract_x
 _atom_site_fract_y
 _atom_site_fract_z
 _atom_site_occupancy
  Mn  Mn0  1  -0.000001  0.000000  0.000001  1
  Co  Co1  1  0.250001  0.250000  0.249999  1
  Si  Si2  1  0.500000  0.500000  0.500000  1
