# generated using pymatgen
data_Ca4VN4
_symmetry_space_group_name_H-M   'P 1'
_cell_length_a   5.94686696
_cell_length_b   6.05800527
_cell_length_c   8.82455241
_cell_angle_alpha   72.94716080
_cell_angle_beta   80.04018729
_cell_angle_gamma   68.16289083
_symmetry_Int_Tables_number   1
_chemical_formula_structural   Ca4VN4
_chemical_formula_sum   'Ca8 V2 N8'
_cell_volume   281.39666565
_cell_formula_units_Z   2
loop_
 _symmetry_equiv_pos_site_id
 _symmetry_equiv_pos_as_xyz
  1  'x, y, z'
loop_
 _atom_site_type_symbol
 _atom_site_label
 _atom_site_symmetry_multiplicity
 _atom_site_fract_x
 _atom_site_fract_y
 _atom_site_fract_z
 _atom_site_occupancy
  Ca  Ca0  1  0.787254  0.574671  0.174788  1
  Ca  Ca1  1  0.212746  0.425329  0.825212  1
  Ca  Ca2  1  0.739116  0.219146  0.972007  1
  Ca  Ca3  1  0.260884  0.780854  0.027993  1
  Ca  Ca4  1  0.734799  0.477419  0.576151  1
  Ca  Ca5  1  0.265201  0.522581  0.423849  1
  Ca  Ca6  1  0.227390  0.962745  0.615631  1
  Ca  Ca7  1  0.772610  0.037255  0.384369  1
  V  V8  1  0.718362  0.848060  0.754515  1
  V  V9  1  0.281638  0.151940  0.245485  1
  N  N10  1  0.959658  0.719833  0.611611  1
  N  N11  1  0.040342  0.280167  0.388389  1
  N  N12  1  0.881892  0.819420  0.922304  1
  N  N13  1  0.118108  0.180580  0.077696  1
  N  N14  1  0.523754  0.647450  0.801925  1
  N  N15  1  0.476246  0.352550  0.198075  1
  N  N16  1  0.467771  0.836540  0.351705  1
  N  N17  1  0.532229  0.163460  0.648295  1
