# generated using pymatgen
data_Ta2B
_symmetry_space_group_name_H-M   'P 1'
_cell_length_a   4.78161671
_cell_length_b   4.78161672
_cell_length_c   4.78161671
_cell_angle_alpha   105.18795676
_cell_angle_beta   105.18795665
_cell_angle_gamma   118.42626099
_symmetry_Int_Tables_number   1
_chemical_formula_structural   Ta2B
_chemical_formula_sum   'Ta4 B2'
_cell_volume   82.59580704
_cell_formula_units_Z   2
loop_
 _symmetry_equiv_pos_site_id
 _symmetry_equiv_pos_as_xyz
  1  'x, y, z'
loop_
 _atom_site_type_symbol
 _atom_site_label
 _atom_site_symmetry_multiplicity
 _atom_site_fract_x
 _atom_site_fract_y
 _atom_site_fract_z
 _atom_site_occupancy
  B  B0  1  0.750000  0.750000  0.000000  1
  B  B1  1  0.250000  0.250000  0.000000  1
  Ta  Ta2  1  0.832905  0.667095  0.500000  1
  Ta  Ta3  1  0.332905  0.832905  0.165810  1
  Ta  Ta4  1  0.167095  0.332905  0.500000  1
  Ta  Ta5  1  0.667095  0.167095  0.834190  1
