# generated using pymatgen
data_SiRu
_symmetry_space_group_name_H-M   'P 1'
_cell_length_a   4.74505211
_cell_length_b   4.74505211
_cell_length_c   4.74505211
_cell_angle_alpha   90.00000000
_cell_angle_beta   90.00000000
_cell_angle_gamma   90.00000000
_symmetry_Int_Tables_number   1
_chemical_formula_structural   SiRu
_chemical_formula_sum   'Si4 Ru4'
_cell_volume   106.83731344
_cell_formula_units_Z   4
loop_
 _symmetry_equiv_pos_site_id
 _symmetry_equiv_pos_as_xyz
  1  'x, y, z'
loop_
 _atom_site_type_symbol
 _atom_site_label
 _atom_site_symmetry_multiplicity
 _atom_site_fract_x
 _atom_site_fract_y
 _atom_site_fract_z
 _atom_site_occupancy
  Si  Si0  1  0.162535  0.337465  0.662535  1
  Si  Si1  1  0.337465  0.662535  0.162535  1
  Si  Si2  1  0.662535  0.162535  0.337465  1
  Si  Si3  1  0.837465  0.837465  0.837465  1
  Ru  Ru4  1  0.870894  0.629106  0.370894  1
  Ru  Ru5  1  0.629106  0.370894  0.870894  1
  Ru  Ru6  1  0.370894  0.870894  0.629106  1
  Ru  Ru7  1  0.129106  0.129106  0.129106  1
