# generated using pymatgen
data_Sr3CrN3
_symmetry_space_group_name_H-M   'P 1'
_cell_length_a   7.83188423
_cell_length_b   7.83188423
_cell_length_c   5.25385579
_cell_angle_alpha   90.00000000
_cell_angle_beta   90.00000000
_cell_angle_gamma   120.00000006
_symmetry_Int_Tables_number   1
_chemical_formula_structural   Sr3CrN3
_chemical_formula_sum   'Sr6 Cr2 N6'
_cell_volume   279.08808630
_cell_formula_units_Z   2
loop_
 _symmetry_equiv_pos_site_id
 _symmetry_equiv_pos_as_xyz
  1  'x, y, z'
loop_
 _atom_site_type_symbol
 _atom_site_label
 _atom_site_symmetry_multiplicity
 _atom_site_fract_x
 _atom_site_fract_y
 _atom_site_fract_z
 _atom_site_occupancy
  N  N0  1  0.563123  0.685107  0.250000  1
  N  N1  1  0.878016  0.563123  0.750000  1
  N  N2  1  0.685107  0.121984  0.750000  1
  N  N3  1  0.314893  0.878016  0.250000  1
  N  N4  1  0.121984  0.436877  0.250000  1
  N  N5  1  0.436877  0.314893  0.750000  1
  Cr  Cr6  1  0.666667  0.333333  0.750000  1
  Cr  Cr7  1  0.333333  0.666667  0.250000  1
  Sr  Sr8  1  0.641738  0.725352  0.750000  1
  Sr  Sr9  1  0.916386  0.641738  0.250000  1
  Sr  Sr10  1  0.725352  0.083614  0.250000  1
  Sr  Sr11  1  0.274648  0.916386  0.750000  1
  Sr  Sr12  1  0.083614  0.358262  0.750000  1
  Sr  Sr13  1  0.358262  0.274648  0.250000  1
