# generated using pymatgen
data_VS
_symmetry_space_group_name_H-M   'P 1'
_cell_length_a   3.15203381
_cell_length_b   6.46150087
_cell_length_c   3.15203371
_cell_angle_alpha   90.00000000
_cell_angle_beta   119.99999880
_cell_angle_gamma   90.00000000
_symmetry_Int_Tables_number   1
_chemical_formula_structural   VS
_chemical_formula_sum   'V2 S2'
_cell_volume   55.59628409
_cell_formula_units_Z   2
loop_
 _symmetry_equiv_pos_site_id
 _symmetry_equiv_pos_as_xyz
  1  'x, y, z'
loop_
 _atom_site_type_symbol
 _atom_site_label
 _atom_site_symmetry_multiplicity
 _atom_site_fract_x
 _atom_site_fract_y
 _atom_site_fract_z
 _atom_site_occupancy
  V  V0  1  0.666667  0.250000  0.333333  1
  V  V1  1  0.333333  0.750000  0.666667  1
  S  S2  1  0.000000  0.499808  0.000000  1
  S  S3  1  0.000000  0.000192  0.000000  1
