# generated using pymatgen
data_BaNa2
_symmetry_space_group_name_H-M   'P 1'
_cell_length_a   7.31183939
_cell_length_b   7.31183939
_cell_length_c   11.85739474
_cell_angle_alpha   90.00000000
_cell_angle_beta   90.00000000
_cell_angle_gamma   120.00000003
_symmetry_Int_Tables_number   1
_chemical_formula_structural   BaNa2
_chemical_formula_sum   'Ba4 Na8'
_cell_volume   549.00107669
_cell_formula_units_Z   4
loop_
 _symmetry_equiv_pos_site_id
 _symmetry_equiv_pos_as_xyz
  1  'x, y, z'
loop_
 _atom_site_type_symbol
 _atom_site_label
 _atom_site_symmetry_multiplicity
 _atom_site_fract_x
 _atom_site_fract_y
 _atom_site_fract_z
 _atom_site_occupancy
  Na  Na0  1  0.169083  0.338167  0.750000  1
  Na  Na1  1  0.830917  0.169083  0.250000  1
  Na  Na2  1  0.338167  0.169083  0.250000  1
  Na  Na3  1  0.661833  0.830917  0.750000  1
  Na  Na4  1  0.000000  0.000000  0.000000  1
  Na  Na5  1  0.000000  0.000000  0.500000  1
  Na  Na6  1  0.830917  0.661833  0.250000  1
  Na  Na7  1  0.169083  0.830917  0.750000  1
  Ba  Ba8  1  0.333333  0.666667  0.438628  1
  Ba  Ba9  1  0.666667  0.333333  0.938628  1
  Ba  Ba10  1  0.666667  0.333333  0.561372  1
  Ba  Ba11  1  0.333333  0.666667  0.061372  1
