# generated using pymatgen
data_ZrSi
_symmetry_space_group_name_H-M   'P 1'
_cell_length_a   3.77612694
_cell_length_b   3.78647248
_cell_length_c   5.32618775
_cell_angle_alpha   110.82151900
_cell_angle_beta   90.00000000
_cell_angle_gamma   90.00000000
_symmetry_Int_Tables_number   1
_chemical_formula_structural   ZrSi
_chemical_formula_sum   'Zr2 Si2'
_cell_volume   71.18139552
_cell_formula_units_Z   2
loop_
 _symmetry_equiv_pos_site_id
 _symmetry_equiv_pos_as_xyz
  1  'x, y, z'
loop_
 _atom_site_type_symbol
 _atom_site_label
 _atom_site_symmetry_multiplicity
 _atom_site_fract_x
 _atom_site_fract_y
 _atom_site_fract_z
 _atom_site_occupancy
  Si  Si0  1  0.250000  0.078846  0.157691  1
  Si  Si1  1  0.750000  0.921154  0.842309  1
  Zr  Zr2  1  0.250000  0.355156  0.710312  1
  Zr  Zr3  1  0.750000  0.644844  0.289688  1
