# generated using pymatgen
data_Ba3RuN3
_symmetry_space_group_name_H-M   'P 1'
_cell_length_a   8.26586445
_cell_length_b   8.26509888
_cell_length_c   5.65996558
_cell_angle_alpha   90.00000000
_cell_angle_beta   90.00000000
_cell_angle_gamma   120.00007666
_symmetry_Int_Tables_number   1
_chemical_formula_structural   Ba3RuN3
_chemical_formula_sum   'Ba6 Ru2 N6'
_cell_volume   334.87322093
_cell_formula_units_Z   2
loop_
 _symmetry_equiv_pos_site_id
 _symmetry_equiv_pos_as_xyz
  1  'x, y, z'
loop_
 _atom_site_type_symbol
 _atom_site_label
 _atom_site_symmetry_multiplicity
 _atom_site_fract_x
 _atom_site_fract_y
 _atom_site_fract_z
 _atom_site_occupancy
  Ba  Ba0  1  0.907048  0.636856  0.250000  1
  Ba  Ba1  1  0.729901  0.092997  0.250000  1
  Ba  Ba2  1  0.363030  0.270158  0.250000  1
  Ba  Ba3  1  0.092952  0.363144  0.750000  1
  Ba  Ba4  1  0.270099  0.907003  0.750000  1
  Ba  Ba5  1  0.636970  0.729842  0.750000  1
  Ru  Ru6  1  0.666749  0.333453  0.750000  1
  Ru  Ru7  1  0.333251  0.666547  0.250000  1
  N  N8  1  0.880785  0.567831  0.750000  1
  N  N9  1  0.687095  0.119134  0.750000  1
  N  N10  1  0.432125  0.312973  0.750000  1
  N  N11  1  0.119215  0.432169  0.250000  1
  N  N12  1  0.312905  0.880866  0.250000  1
  N  N13  1  0.567875  0.687027  0.250000  1
