# generated using pymatgen
data_Ag3Ge5P6
_symmetry_space_group_name_H-M   'P 1'
_cell_length_a   9.04424525
_cell_length_b   9.04424525
_cell_length_c   9.04424525
_cell_angle_alpha   109.47122066
_cell_angle_beta   109.47122067
_cell_angle_gamma   109.47122063
_symmetry_Int_Tables_number   1
_chemical_formula_structural   Ag3Ge5P6
_chemical_formula_sum   'Ag6 Ge10 P12'
_cell_volume   569.50179874
_cell_formula_units_Z   2
loop_
 _symmetry_equiv_pos_site_id
 _symmetry_equiv_pos_as_xyz
  1  'x, y, z'
loop_
 _atom_site_type_symbol
 _atom_site_label
 _atom_site_symmetry_multiplicity
 _atom_site_fract_x
 _atom_site_fract_y
 _atom_site_fract_z
 _atom_site_occupancy
  P  P0  1  0.231608  0.231608  0.742706  1
  P  P1  1  0.488902  0.257294  0.488902  1
  P  P2  1  0.257294  0.488902  0.488902  1
  P  P3  1  0.000000  0.511098  0.768392  1
  P  P4  1  0.511098  0.000000  0.768392  1
  P  P5  1  0.768392  0.000000  0.511098  1
  P  P6  1  0.000000  0.768392  0.511098  1
  P  P7  1  0.768392  0.511098  0.000000  1
  P  P8  1  0.511098  0.768392  0.000000  1
  P  P9  1  0.488902  0.488902  0.257294  1
  P  P10  1  0.742706  0.231608  0.231608  1
  P  P11  1  0.231608  0.742706  0.231608  1
  Ge  Ge12  1  0.250000  0.500000  0.750000  1
  Ge  Ge13  1  0.750000  0.250000  0.500000  1
  Ge  Ge14  1  0.250000  0.750000  0.500000  1
  Ge  Ge15  1  0.500000  0.750000  0.250000  1
  Ge  Ge16  1  0.000000  0.000000  0.422124  1
  Ge  Ge17  1  0.000000  0.422124  0.000000  1
  Ge  Ge18  1  0.422124  0.000000  0.000000  1
  Ge  Ge19  1  0.577876  0.577876  0.577876  1
  Ge  Ge20  1  0.500000  0.250000  0.750000  1
  Ge  Ge21  1  0.750000  0.500000  0.250000  1
  Ag  Ag22  1  0.000000  0.802814  0.802814  1
  Ag  Ag23  1  0.802814  0.802814  0.000000  1
  Ag  Ag24  1  0.197186  0.197186  0.000000  1
  Ag  Ag25  1  0.197186  0.000000  0.197186  1
  Ag  Ag26  1  0.802814  0.000000  0.802814  1
  Ag  Ag27  1  0.000000  0.197186  0.197186  1
