# generated using pymatgen
data_K6Co2O7
_symmetry_space_group_name_H-M   'P 1'
_cell_length_a   6.64096846
_cell_length_b   9.21400073
_cell_length_c   9.30398500
_cell_angle_alpha   90.00000000
_cell_angle_beta   92.29608563
_cell_angle_gamma   90.00000000
_symmetry_Int_Tables_number   1
_chemical_formula_structural   K6Co2O7
_chemical_formula_sum   'K12 Co4 O14'
_cell_volume   568.85272340
_cell_formula_units_Z   2
loop_
 _symmetry_equiv_pos_site_id
 _symmetry_equiv_pos_as_xyz
  1  'x, y, z'
loop_
 _atom_site_type_symbol
 _atom_site_label
 _atom_site_symmetry_multiplicity
 _atom_site_fract_x
 _atom_site_fract_y
 _atom_site_fract_z
 _atom_site_occupancy
  O  O0  1  0.000000  0.500000  0.500000  1
  O  O1  1  0.500000  0.000000  0.000000  1
  O  O2  1  0.677316  0.667286  0.643693  1
  O  O3  1  0.822685  0.167286  0.856307  1
  O  O4  1  0.428856  0.301720  0.927783  1
  O  O5  1  0.071144  0.801720  0.572217  1
  O  O6  1  0.571144  0.698280  0.072217  1
  O  O7  1  0.928856  0.198280  0.427783  1
  O  O8  1  0.946974  0.403323  0.190673  1
  O  O9  1  0.553025  0.903323  0.309327  1
  O  O10  1  0.053025  0.596677  0.809327  1
  O  O11  1  0.446974  0.096677  0.690672  1
  O  O12  1  0.322685  0.332714  0.356307  1
  O  O13  1  0.177315  0.832713  0.143692  1
  K  K14  1  0.364054  0.798969  0.787933  1
  K  K15  1  0.864053  0.701031  0.287933  1
  K  K16  1  0.636247  0.349159  0.565744  1
  K  K17  1  0.863754  0.849160  0.934256  1
  K  K18  1  0.363754  0.650841  0.434256  1
  K  K19  1  0.136246  0.150841  0.065744  1
  K  K20  1  0.745783  0.473307  0.941664  1
  K  K21  1  0.754216  0.973307  0.558337  1
  K  K22  1  0.254216  0.526693  0.058336  1
  K  K23  1  0.245783  0.026693  0.441664  1
  K  K24  1  0.635946  0.201031  0.212067  1
  K  K25  1  0.135946  0.298969  0.712067  1
  Co  Co26  1  0.054325  0.356594  0.363842  1
  Co  Co27  1  0.445675  0.856594  0.136159  1
  Co  Co28  1  0.945675  0.643406  0.636158  1
  Co  Co29  1  0.554324  0.143406  0.863842  1
