# generated using pymatgen
data_Sr(BeN)2
_symmetry_space_group_name_H-M   'P 1'
_cell_length_a   5.50992236
_cell_length_b   5.50992236
_cell_length_c   5.50992236
_cell_angle_alpha   92.31188992
_cell_angle_beta   118.67432769
_cell_angle_gamma   118.67432758
_symmetry_Int_Tables_number   1
_chemical_formula_structural   Sr(BeN)2
_chemical_formula_sum   'Sr2 Be4 N4'
_cell_volume   120.54668416
_cell_formula_units_Z   2
loop_
 _symmetry_equiv_pos_site_id
 _symmetry_equiv_pos_as_xyz
  1  'x, y, z'
loop_
 _atom_site_type_symbol
 _atom_site_label
 _atom_site_symmetry_multiplicity
 _atom_site_fract_x
 _atom_site_fract_y
 _atom_site_fract_z
 _atom_site_occupancy
  Be  Be0  1  0.754570  0.127285  0.627285  1
  Be  Be1  1  0.500000  0.627285  0.872715  1
  Be  Be2  1  0.245430  0.872715  0.372715  1
  Be  Be3  1  0.500000  0.372715  0.127285  1
  N  N4  1  0.500000  0.167828  0.332172  1
  N  N5  1  0.835655  0.667828  0.167828  1
  N  N6  1  0.164345  0.332172  0.832172  1
  N  N7  1  0.500000  0.832172  0.667828  1
  Sr  Sr8  1  0.000000  0.750000  0.750000  1
  Sr  Sr9  1  0.000000  0.250000  0.250000  1
