# generated using pymatgen
data_BW
_symmetry_space_group_name_H-M   'P 1'
_cell_length_a   3.11009572
_cell_length_b   3.18723811
_cell_length_c   4.54595450
_cell_angle_alpha   110.52142637
_cell_angle_beta   90.00000000
_cell_angle_gamma   90.00000000
_symmetry_Int_Tables_number   1
_chemical_formula_structural   BW
_chemical_formula_sum   'B2 W2'
_cell_volume   42.20269825
_cell_formula_units_Z   2
loop_
 _symmetry_equiv_pos_site_id
 _symmetry_equiv_pos_as_xyz
  1  'x, y, z'
loop_
 _atom_site_type_symbol
 _atom_site_label
 _atom_site_symmetry_multiplicity
 _atom_site_fract_x
 _atom_site_fract_y
 _atom_site_fract_z
 _atom_site_occupancy
  B  B0  1  0.250000  0.439270  0.878540  1
  B  B1  1  0.750000  0.560730  0.121460  1
  W  W2  1  0.250000  0.144404  0.288807  1
  W  W3  1  0.750000  0.855596  0.711193  1
