# generated using pymatgen
data_Ba2Mn3(AsO)2
_symmetry_space_group_name_H-M   'P 1'
_cell_length_a   4.35867598
_cell_length_b   4.35867598
_cell_length_c   10.59935585
_cell_angle_alpha   101.86523462
_cell_angle_beta   101.86523463
_cell_angle_gamma   90.00000004
_symmetry_Int_Tables_number   1
_chemical_formula_structural   Ba2Mn3(AsO)2
_chemical_formula_sum   'Ba2 Mn3 As2 O2'
_cell_volume   192.66625365
_cell_formula_units_Z   1
loop_
 _symmetry_equiv_pos_site_id
 _symmetry_equiv_pos_as_xyz
  1  'x, y, z'
loop_
 _atom_site_type_symbol
 _atom_site_label
 _atom_site_symmetry_multiplicity
 _atom_site_fract_x
 _atom_site_fract_y
 _atom_site_fract_z
 _atom_site_occupancy
  O  O0  1  0.999999  0.500000  0.000000  1
  O  O1  1  0.499999  1.000000  0.000000  1
  Mn  Mn2  1  0.000000  0.000000  0.000000  1
  Mn  Mn3  1  0.750000  0.249999  0.500000  1
  Mn  Mn4  1  0.250000  0.750001  0.500000  1
  As  As5  1  0.171560  0.171560  0.343121  1
  As  As6  1  0.828441  0.828440  0.656880  1
  Ba  Ba7  1  0.587289  0.587288  0.174577  1
  Ba  Ba8  1  0.412712  0.412712  0.825423  1
