# generated using pymatgen
data_Sr3(FeO3)2
_symmetry_space_group_name_H-M   'P 1'
_cell_length_a   3.96078048
_cell_length_b   3.96078048
_cell_length_c   10.48387837
_cell_angle_alpha   100.88851640
_cell_angle_beta   100.88851641
_cell_angle_gamma   89.99999997
_symmetry_Int_Tables_number   1
_chemical_formula_structural   Sr3(FeO3)2
_chemical_formula_sum   'Sr3 Fe2 O6'
_cell_volume   158.49149231
_cell_formula_units_Z   1
loop_
 _symmetry_equiv_pos_site_id
 _symmetry_equiv_pos_as_xyz
  1  'x, y, z'
loop_
 _atom_site_type_symbol
 _atom_site_label
 _atom_site_symmetry_multiplicity
 _atom_site_fract_x
 _atom_site_fract_y
 _atom_site_fract_z
 _atom_site_occupancy
  O  O0  1  0.803132  0.803132  0.606263  1
  O  O1  1  0.196869  0.196868  0.393736  1
  O  O2  1  0.915762  0.415762  0.831523  1
  O  O3  1  0.415761  0.915763  0.831523  1
  O  O4  1  0.084239  0.584238  0.168476  1
  O  O5  1  0.584238  0.084238  0.168476  1
  Fe  Fe6  1  0.897542  0.897540  0.795082  1
  Fe  Fe7  1  0.102459  0.102458  0.204918  1
  Sr  Sr8  1  0.680389  0.680390  0.360780  1
  Sr  Sr9  1  0.319609  0.319610  0.639221  1
  Sr  Sr10  1  0.499999  0.500000  0.000000  1
