# generated using pymatgen
data_Si5Pt6
_symmetry_space_group_name_H-M   'P 1'
_cell_length_a   3.54610779
_cell_length_b   6.24127471
_cell_length_c   15.58926363
_cell_angle_alpha   93.54744585
_cell_angle_beta   90.00000000
_cell_angle_gamma   90.00000000
_symmetry_Int_Tables_number   1
_chemical_formula_structural   Si5Pt6
_chemical_formula_sum   'Si10 Pt12'
_cell_volume   344.36411134
_cell_formula_units_Z   2
loop_
 _symmetry_equiv_pos_site_id
 _symmetry_equiv_pos_as_xyz
  1  'x, y, z'
loop_
 _atom_site_type_symbol
 _atom_site_label
 _atom_site_symmetry_multiplicity
 _atom_site_fract_x
 _atom_site_fract_y
 _atom_site_fract_z
 _atom_site_occupancy
  Si  Si0  1  0.750000  0.222702  0.427064  1
  Si  Si1  1  0.250000  0.777298  0.572936  1
  Si  Si2  1  0.250000  0.312599  0.279855  1
  Si  Si3  1  0.750000  0.687401  0.720145  1
  Si  Si4  1  0.250000  0.768951  0.334915  1
  Si  Si5  1  0.750000  0.231049  0.665085  1
  Si  Si6  1  0.250000  0.435337  0.064632  1
  Si  Si7  1  0.750000  0.564663  0.935368  1
  Si  Si8  1  0.750000  0.946104  0.119335  1
  Si  Si9  1  0.250000  0.053896  0.880665  1
  Pt  Pt10  1  0.750000  0.527477  0.576944  1
  Pt  Pt11  1  0.250000  0.472523  0.423056  1
  Pt  Pt12  1  0.750000  0.852094  0.447781  1
  Pt  Pt13  1  0.250000  0.147906  0.552219  1
  Pt  Pt14  1  0.750000  0.008728  0.281331  1
  Pt  Pt15  1  0.250000  0.991272  0.718669  1
  Pt  Pt16  1  0.750000  0.343025  0.174124  1
  Pt  Pt17  1  0.250000  0.656975  0.825876  1
  Pt  Pt18  1  0.250000  0.720759  0.178315  1
  Pt  Pt19  1  0.750000  0.279241  0.821685  1
  Pt  Pt20  1  0.250000  0.802345  0.001296  1
  Pt  Pt21  1  0.750000  0.197655  0.998704  1
