# generated using pymatgen
data_B2Mo
_symmetry_space_group_name_H-M   'P 1'
_cell_length_a   7.22225307
_cell_length_b   7.22225307
_cell_length_c   7.22225307
_cell_angle_alpha   24.15373102
_cell_angle_beta   24.15373106
_cell_angle_gamma   24.15373106
_symmetry_Int_Tables_number   1
_chemical_formula_structural   B2Mo
_chemical_formula_sum   'B4 Mo2'
_cell_volume   55.43342457
_cell_formula_units_Z   2
loop_
 _symmetry_equiv_pos_site_id
 _symmetry_equiv_pos_as_xyz
  1  'x, y, z'
loop_
 _atom_site_type_symbol
 _atom_site_label
 _atom_site_symmetry_multiplicity
 _atom_site_fract_x
 _atom_site_fract_y
 _atom_site_fract_z
 _atom_site_occupancy
  B  B0  1  0.818514  0.818514  0.818514  1
  B  B1  1  0.181486  0.181486  0.181486  1
  B  B2  1  0.332191  0.332191  0.332191  1
  B  B3  1  0.667809  0.667809  0.667809  1
  Mo  Mo4  1  0.924123  0.924123  0.924123  1
  Mo  Mo5  1  0.075877  0.075877  0.075877  1
