# generated using pymatgen
data_In2Co
_symmetry_space_group_name_H-M   'P 1'
_cell_length_a   5.28873616
_cell_length_b   5.42311453
_cell_length_c   9.33082269
_cell_angle_alpha   82.05690503
_cell_angle_beta   73.53668461
_cell_angle_gamma   60.81634668
_symmetry_Int_Tables_number   1
_chemical_formula_structural   In2Co
_chemical_formula_sum   'In8 Co4'
_cell_volume   224.07043204
_cell_formula_units_Z   4
loop_
 _symmetry_equiv_pos_site_id
 _symmetry_equiv_pos_as_xyz
  1  'x, y, z'
loop_
 _atom_site_type_symbol
 _atom_site_label
 _atom_site_symmetry_multiplicity
 _atom_site_fract_x
 _atom_site_fract_y
 _atom_site_fract_z
 _atom_site_occupancy
  Co  Co0  1  0.253119  0.750000  0.493763  1
  Co  Co1  1  0.996881  0.750000  0.006237  1
  Co  Co2  1  0.746881  0.250000  0.506237  1
  Co  Co3  1  0.003119  0.250000  0.993763  1
  In  In4  1  0.286434  0.250000  0.427131  1
  In  In5  1  0.463566  0.250000  0.072869  1
  In  In6  1  0.713566  0.750000  0.572869  1
  In  In7  1  0.536434  0.750000  0.927131  1
  In  In8  1  0.284695  0.430611  0.750000  1
  In  In9  1  0.965305  0.069389  0.750000  1
  In  In10  1  0.715305  0.569389  0.250000  1
  In  In11  1  0.034695  0.930611  0.250000  1
