# generated using pymatgen
data_Mg2FeH6
_symmetry_space_group_name_H-M   'P 1'
_cell_length_a   4.51749787
_cell_length_b   4.51749786
_cell_length_c   4.51749787
_cell_angle_alpha   60.00000003
_cell_angle_beta   60.00000007
_cell_angle_gamma   59.99999997
_symmetry_Int_Tables_number   1
_chemical_formula_structural   Mg2FeH6
_chemical_formula_sum   'Mg2 Fe1 H6'
_cell_volume   65.18968331
_cell_formula_units_Z   1
loop_
 _symmetry_equiv_pos_site_id
 _symmetry_equiv_pos_as_xyz
  1  'x, y, z'
loop_
 _atom_site_type_symbol
 _atom_site_label
 _atom_site_symmetry_multiplicity
 _atom_site_fract_x
 _atom_site_fract_y
 _atom_site_fract_z
 _atom_site_occupancy
  H  H0  1  0.244187  0.755813  0.755813  1
  H  H1  1  0.244187  0.755813  0.244187  1
  H  H2  1  0.755813  0.244187  0.755813  1
  H  H3  1  0.755813  0.244187  0.244187  1
  H  H4  1  0.755813  0.755813  0.244187  1
  H  H5  1  0.244187  0.244187  0.755813  1
  Mg  Mg6  1  0.250000  0.250000  0.250000  1
  Mg  Mg7  1  0.750000  0.750000  0.750000  1
  Fe  Fe8  1  0.000000  0.000000  0.000000  1
