# generated using pymatgen
data_PbCl2
_symmetry_space_group_name_H-M   'P 1'
_cell_length_a   4.57924101
_cell_length_b   7.78987344
_cell_length_c   9.35574134
_cell_angle_alpha   90.00000000
_cell_angle_beta   90.00000000
_cell_angle_gamma   90.00000000
_symmetry_Int_Tables_number   1
_chemical_formula_structural   PbCl2
_chemical_formula_sum   'Pb4 Cl8'
_cell_volume   333.73527245
_cell_formula_units_Z   4
loop_
 _symmetry_equiv_pos_site_id
 _symmetry_equiv_pos_as_xyz
  1  'x, y, z'
loop_
 _atom_site_type_symbol
 _atom_site_label
 _atom_site_symmetry_multiplicity
 _atom_site_fract_x
 _atom_site_fract_y
 _atom_site_fract_z
 _atom_site_occupancy
  Cl  Cl0  1  0.250000  0.988497  0.654463  1
  Cl  Cl1  1  0.750000  0.011503  0.345537  1
  Cl  Cl2  1  0.250000  0.488497  0.845537  1
  Cl  Cl3  1  0.750000  0.511503  0.154463  1
  Cl  Cl4  1  0.750000  0.142144  0.917260  1
  Cl  Cl5  1  0.250000  0.857856  0.082740  1
  Cl  Cl6  1  0.750000  0.642144  0.582740  1
  Cl  Cl7  1  0.250000  0.357856  0.417260  1
  Pb  Pb8  1  0.250000  0.764558  0.415922  1
  Pb  Pb9  1  0.750000  0.235442  0.584078  1
  Pb  Pb10  1  0.250000  0.264558  0.084078  1
  Pb  Pb11  1  0.750000  0.735442  0.915922  1
