# generated using pymatgen
data_Mn2B
_symmetry_space_group_name_H-M   'P 1'
_cell_length_a   4.12917173
_cell_length_b   4.12917173
_cell_length_c   4.12917173
_cell_angle_alpha   104.40892573
_cell_angle_beta   104.40892582
_cell_angle_gamma   120.15350632
_symmetry_Int_Tables_number   1
_chemical_formula_structural   Mn2B
_chemical_formula_sum   'Mn4 B2'
_cell_volume   52.76082881
_cell_formula_units_Z   2
loop_
 _symmetry_equiv_pos_site_id
 _symmetry_equiv_pos_as_xyz
  1  'x, y, z'
loop_
 _atom_site_type_symbol
 _atom_site_label
 _atom_site_symmetry_multiplicity
 _atom_site_fract_x
 _atom_site_fract_y
 _atom_site_fract_z
 _atom_site_occupancy
  B  B0  1  0.250000  0.250000  0.000000  1
  B  B1  1  0.750000  0.750000  0.000000  1
  Mn  Mn2  1  0.659555  0.159555  0.819111  1
  Mn  Mn3  1  0.159555  0.340445  0.500000  1
  Mn  Mn4  1  0.840445  0.659555  0.500000  1
  Mn  Mn5  1  0.340445  0.840445  0.180889  1
