# generated using pymatgen
data_TiCoSi
_symmetry_space_group_name_H-M   'P 1'
_cell_length_a   3.70496676
_cell_length_b   6.12467502
_cell_length_c   6.89266720
_cell_angle_alpha   90.00000000
_cell_angle_beta   90.00000000
_cell_angle_gamma   90.00000000
_symmetry_Int_Tables_number   1
_chemical_formula_structural   TiCoSi
_chemical_formula_sum   'Ti4 Co4 Si4'
_cell_volume   156.40645599
_cell_formula_units_Z   4
loop_
 _symmetry_equiv_pos_site_id
 _symmetry_equiv_pos_as_xyz
  1  'x, y, z'
loop_
 _atom_site_type_symbol
 _atom_site_label
 _atom_site_symmetry_multiplicity
 _atom_site_fract_x
 _atom_site_fract_y
 _atom_site_fract_z
 _atom_site_occupancy
  Si  Si0  1  0.750000  0.726765  0.114279  1
  Si  Si1  1  0.250000  0.773235  0.614279  1
  Si  Si2  1  0.750000  0.226765  0.385721  1
  Si  Si3  1  0.250000  0.273235  0.885721  1
  Ti  Ti4  1  0.250000  0.015530  0.190756  1
  Ti  Ti5  1  0.750000  0.484470  0.690756  1
  Ti  Ti6  1  0.250000  0.515530  0.309244  1
  Ti  Ti7  1  0.750000  0.984470  0.809244  1
  Co  Co8  1  0.250000  0.645401  0.934686  1
  Co  Co9  1  0.750000  0.354599  0.065314  1
  Co  Co10  1  0.250000  0.145401  0.565314  1
  Co  Co11  1  0.750000  0.854599  0.434686  1
