# generated using pymatgen
data_Mn(ReO4)2
_symmetry_space_group_name_H-M   'P 1'
_cell_length_a   5.68400320
_cell_length_b   5.68400320
_cell_length_c   6.30376601
_cell_angle_alpha   90.00000000
_cell_angle_beta   90.00000000
_cell_angle_gamma   120.00000002
_symmetry_Int_Tables_number   1
_chemical_formula_structural   Mn(ReO4)2
_chemical_formula_sum   'Mn1 Re2 O8'
_cell_volume   176.37594077
_cell_formula_units_Z   1
loop_
 _symmetry_equiv_pos_site_id
 _symmetry_equiv_pos_as_xyz
  1  'x, y, z'
loop_
 _atom_site_type_symbol
 _atom_site_label
 _atom_site_symmetry_multiplicity
 _atom_site_fract_x
 _atom_site_fract_y
 _atom_site_fract_z
 _atom_site_occupancy
  O  O0  1  0.666668  0.333333  0.453137  1
  O  O1  1  0.333334  0.666667  0.546863  1
  O  O2  1  0.832464  0.160654  0.823206  1
  O  O3  1  0.160654  0.328189  0.176794  1
  O  O4  1  0.671811  0.832464  0.176794  1
  O  O5  1  0.328190  0.167537  0.823206  1
  O  O6  1  0.839347  0.671809  0.823206  1
  O  O7  1  0.167537  0.839346  0.176794  1
  Mn  Mn8  1  0.000000  0.000000  0.000000  1
  Re  Re9  1  0.333334  0.666667  0.270918  1
  Re  Re10  1  0.666668  0.333333  0.729082  1
