# generated using pymatgen
data_Ga4Ni3
_symmetry_space_group_name_H-M   'P 1'
_cell_length_a   9.94166643
_cell_length_b   9.94166638
_cell_length_c   9.94166700
_cell_angle_alpha   109.47122189
_cell_angle_beta   109.47122180
_cell_angle_gamma   109.47121959
_symmetry_Int_Tables_number   1
_chemical_formula_structural   Ga4Ni3
_chemical_formula_sum   'Ga32 Ni24'
_cell_volume   756.40725636
_cell_formula_units_Z   8
loop_
 _symmetry_equiv_pos_site_id
 _symmetry_equiv_pos_as_xyz
  1  'x, y, z'
loop_
 _atom_site_type_symbol
 _atom_site_label
 _atom_site_symmetry_multiplicity
 _atom_site_fract_x
 _atom_site_fract_y
 _atom_site_fract_z
 _atom_site_occupancy
  Ni  Ni0  1  0.250000  0.008095  0.491905  1
  Ni  Ni1  1  0.008095  0.016191  0.758095  1
  Ni  Ni2  1  0.758095  0.250000  0.741905  1
  Ni  Ni3  1  0.741905  0.758095  0.250000  1
  Ni  Ni4  1  0.491905  0.741905  0.483809  1
  Ni  Ni5  1  0.483809  0.491905  0.741905  1
  Ni  Ni6  1  0.016191  0.758095  0.008095  1
  Ni  Ni7  1  0.758095  0.008095  0.016191  1
  Ni  Ni8  1  0.741905  0.483809  0.491905  1
  Ni  Ni9  1  0.491905  0.250000  0.008095  1
  Ni  Ni10  1  0.008095  0.491905  0.250000  1
  Ni  Ni11  1  0.250000  0.741905  0.758095  1
  Ni  Ni12  1  0.750000  0.991905  0.508095  1
  Ni  Ni13  1  0.991905  0.983809  0.241905  1
  Ni  Ni14  1  0.241905  0.750000  0.258095  1
  Ni  Ni15  1  0.258095  0.241905  0.750000  1
  Ni  Ni16  1  0.508095  0.258095  0.516191  1
  Ni  Ni17  1  0.516191  0.508095  0.258095  1
  Ni  Ni18  1  0.983809  0.241905  0.991905  1
  Ni  Ni19  1  0.241905  0.991905  0.983809  1
  Ni  Ni20  1  0.258095  0.516191  0.508095  1
  Ni  Ni21  1  0.508095  0.750000  0.991905  1
  Ni  Ni22  1  0.991905  0.508095  0.750000  1
  Ni  Ni23  1  0.750000  0.258095  0.241905  1
  Ga  Ga24  1  0.000000  0.000000  0.000000  1
  Ga  Ga25  1  0.000000  0.500000  0.000000  1
  Ga  Ga26  1  0.000000  0.000000  0.500000  1
  Ga  Ga27  1  0.500000  0.000000  0.000000  1
  Ga  Ga28  1  0.000000  0.500000  0.500000  1
  Ga  Ga29  1  0.500000  0.000000  0.500000  1
  Ga  Ga30  1  0.500000  0.500000  0.000000  1
  Ga  Ga31  1  0.500000  0.500000  0.500000  1
  Ga  Ga32  1  0.250000  0.262304  0.012304  1
  Ga  Ga33  1  0.262304  0.750000  0.012304  1
  Ga  Ga34  1  0.237696  0.250000  0.487696  1
  Ga  Ga35  1  0.487696  0.237696  0.250000  1
  Ga  Ga36  1  0.012304  0.262304  0.750000  1
  Ga  Ga37  1  0.750000  0.012304  0.262304  1
  Ga  Ga38  1  0.237696  0.487696  0.750000  1
  Ga  Ga39  1  0.487696  0.750000  0.237696  1
  Ga  Ga40  1  0.262304  0.012304  0.250000  1
  Ga  Ga41  1  0.012304  0.250000  0.262304  1
  Ga  Ga42  1  0.750000  0.237696  0.487696  1
  Ga  Ga43  1  0.250000  0.487696  0.237696  1
  Ga  Ga44  1  0.750000  0.737696  0.987696  1
  Ga  Ga45  1  0.737696  0.250000  0.987696  1
  Ga  Ga46  1  0.762304  0.750000  0.512304  1
  Ga  Ga47  1  0.512304  0.762304  0.750000  1
  Ga  Ga48  1  0.987696  0.737696  0.250000  1
  Ga  Ga49  1  0.250000  0.987696  0.737696  1
  Ga  Ga50  1  0.762304  0.512304  0.250000  1
  Ga  Ga51  1  0.512304  0.250000  0.762304  1
  Ga  Ga52  1  0.737696  0.987696  0.750000  1
  Ga  Ga53  1  0.987696  0.750000  0.737696  1
  Ga  Ga54  1  0.250000  0.762304  0.512304  1
  Ga  Ga55  1  0.750000  0.512304  0.762304  1
