# generated using pymatgen
data_LiAlO2
_symmetry_space_group_name_H-M   'P 1'
_cell_length_a   3.90236686
_cell_length_b   3.90236686
_cell_length_c   30.21636978
_cell_angle_alpha   112.78690060
_cell_angle_beta   112.78690060
_cell_angle_gamma   90.00084179
_symmetry_Int_Tables_number   1
_chemical_formula_structural   LiAlO2
_chemical_formula_sum   'Li12 Al12 O24'
_cell_volume   384.98429766
_cell_formula_units_Z   12
loop_
 _symmetry_equiv_pos_site_id
 _symmetry_equiv_pos_as_xyz
  1  'x, y, z'
loop_
 _atom_site_type_symbol
 _atom_site_label
 _atom_site_symmetry_multiplicity
 _atom_site_fract_x
 _atom_site_fract_y
 _atom_site_fract_z
 _atom_site_occupancy
  Al  Al0  1  0.123499  0.873113  0.874428  1
  Al  Al1  1  0.125225  0.874962  0.708363  1
  Al  Al2  1  0.875266  0.125430  0.958431  1
  Al  Al3  1  0.125038  0.874775  0.541637  1
  Al  Al4  1  0.875596  0.125442  0.791832  1
  Al  Al5  1  0.126887  0.876501  0.375572  1
  Al  Al6  1  0.874997  0.125003  0.625000  1
  Al  Al7  1  0.874558  0.124404  0.458168  1
  Al  Al8  1  0.622697  0.372940  0.207629  1
  Al  Al9  1  0.874570  0.124734  0.291569  1
  Al  Al10  1  0.627060  0.377303  0.042371  1
  Al  Al11  1  0.874659  0.125341  0.125000  1
  Li  Li12  1  0.375607  0.625715  0.958549  1
  Li  Li13  1  0.376191  0.625902  0.792008  1
  Li  Li14  1  0.641379  0.391144  0.880399  1
  Li  Li15  1  0.375059  0.624941  0.625000  1
  Li  Li16  1  0.624011  0.373887  0.707985  1
  Li  Li17  1  0.374098  0.623809  0.457992  1
  Li  Li18  1  0.626113  0.375989  0.542015  1
  Li  Li19  1  0.140551  0.890854  0.213566  1
  Li  Li20  1  0.374285  0.624393  0.291451  1
  Li  Li21  1  0.608856  0.358621  0.369601  1
  Li  Li22  1  0.109146  0.859449  0.036434  1
  Li  Li23  1  0.374663  0.625337  0.125000  1
  O  O24  1  0.102398  0.352106  0.867407  1
  O  O25  1  0.375345  0.125453  0.958456  1
  O  O26  1  0.099825  0.349629  0.699911  1
  O  O27  1  0.349387  0.099187  0.783093  1
  O  O28  1  0.650314  0.900104  0.883386  1
  O  O29  1  0.875293  0.625428  0.958448  1
  O  O30  1  0.099619  0.349393  0.533175  1
  O  O31  1  0.349987  0.099917  0.616652  1
  O  O32  1  0.650607  0.900381  0.716825  1
  O  O33  1  0.901390  0.651184  0.800419  1
  O  O34  1  0.099896  0.349686  0.366614  1
  O  O35  1  0.348816  0.098610  0.449581  1
  O  O36  1  0.650371  0.900175  0.550089  1
  O  O37  1  0.900083  0.650013  0.633348  1
  O  O38  1  0.101395  0.351745  0.200538  1
  O  O39  1  0.374572  0.124707  0.291552  1
  O  O40  1  0.647894  0.897602  0.382593  1
  O  O41  1  0.900813  0.650613  0.466907  1
  O  O42  1  0.100251  0.350492  0.033454  1
  O  O43  1  0.401232  0.151808  0.133833  1
  O  O44  1  0.649508  0.899749  0.216546  1
  O  O45  1  0.874547  0.624655  0.291544  1
  O  O46  1  0.648255  0.898605  0.049462  1
  O  O47  1  0.848192  0.598768  0.116167  1
