# generated using pymatgen
data_LiB3O5
_symmetry_space_group_name_H-M   'P 1'
_cell_length_a   5.25622011
_cell_length_b   7.42596011
_cell_length_c   8.52057103
_cell_angle_alpha   90.00000000
_cell_angle_beta   90.00000000
_cell_angle_gamma   90.00000000
_symmetry_Int_Tables_number   1
_chemical_formula_structural   LiB3O5
_chemical_formula_sum   'Li4 B12 O20'
_cell_volume   332.57902570
_cell_formula_units_Z   4
loop_
 _symmetry_equiv_pos_site_id
 _symmetry_equiv_pos_as_xyz
  1  'x, y, z'
loop_
 _atom_site_type_symbol
 _atom_site_label
 _atom_site_symmetry_multiplicity
 _atom_site_fract_x
 _atom_site_fract_y
 _atom_site_fract_z
 _atom_site_occupancy
  Li  Li0  1  0.012105  0.431142  0.580596  1
  Li  Li1  1  0.512105  0.568858  0.419405  1
  Li  Li2  1  0.012105  0.068858  0.080596  1
  Li  Li3  1  0.512105  0.931142  0.919404  1
  B  B4  1  0.641140  0.164180  0.491000  1
  B  B5  1  0.141140  0.835820  0.509000  1
  B  B6  1  0.641140  0.335820  0.991000  1
  B  B7  1  0.141140  0.664180  0.009000  1
  B  B8  1  0.448360  0.941048  0.307543  1
  B  B9  1  0.948360  0.058952  0.692457  1
  B  B10  1  0.448360  0.558952  0.807543  1
  B  B11  1  0.948360  0.441048  0.192457  1
  B  B12  1  0.267356  0.247011  0.340851  1
  B  B13  1  0.767356  0.752989  0.659149  1
  B  B14  1  0.267356  0.252989  0.840851  1
  B  B15  1  0.767356  0.747011  0.159149  1
  O  O16  1  0.644870  0.002946  0.416824  1
  O  O17  1  0.144870  0.997054  0.583176  1
  O  O18  1  0.644870  0.497054  0.916824  1
  O  O19  1  0.144870  0.502946  0.083176  1
  O  O20  1  0.799723  0.206004  0.614103  1
  O  O21  1  0.299723  0.793996  0.385897  1
  O  O22  1  0.799723  0.293996  0.114103  1
  O  O23  1  0.299723  0.706004  0.885897  1
  O  O24  1  0.467085  0.297293  0.441500  1
  O  O25  1  0.967085  0.702707  0.558500  1
  O  O26  1  0.467085  0.202707  0.941500  1
  O  O27  1  0.967085  0.797293  0.058500  1
  O  O28  1  0.269411  0.088181  0.259857  1
  O  O29  1  0.769411  0.911819  0.740143  1
  O  O30  1  0.269411  0.411819  0.759857  1
  O  O31  1  0.769411  0.588181  0.240143  1
  O  O32  1  0.074100  0.371722  0.334934  1
  O  O33  1  0.574100  0.628278  0.665066  1
  O  O34  1  0.074100  0.128278  0.834934  1
  O  O35  1  0.574100  0.871722  0.165066  1
