# generated using pymatgen
data_Rb3Au7
_symmetry_space_group_name_H-M   'P 1'
_cell_length_a   5.70080350
_cell_length_b   7.38261563
_cell_length_c   7.44605296
_cell_angle_alpha   90.00000000
_cell_angle_beta   90.00000000
_cell_angle_gamma   112.71182664
_symmetry_Int_Tables_number   1
_chemical_formula_structural   Rb3Au7
_chemical_formula_sum   'Rb3 Au7'
_cell_volume   289.08079904
_cell_formula_units_Z   1
loop_
 _symmetry_equiv_pos_site_id
 _symmetry_equiv_pos_as_xyz
  1  'x, y, z'
loop_
 _atom_site_type_symbol
 _atom_site_label
 _atom_site_symmetry_multiplicity
 _atom_site_fract_x
 _atom_site_fract_y
 _atom_site_fract_z
 _atom_site_occupancy
  Rb  Rb0  1  0.662376  0.324751  0.500000  1
  Rb  Rb1  1  0.500000  0.000000  0.000000  1
  Rb  Rb2  1  0.337624  0.675249  0.500000  1
  Au  Au3  1  0.892562  0.785124  0.804176  1
  Au  Au4  1  0.107438  0.214876  0.804176  1
  Au  Au5  1  0.000000  0.000000  0.500000  1
  Au  Au6  1  0.892562  0.785124  0.195824  1
  Au  Au7  1  0.107438  0.214876  0.195824  1
  Au  Au8  1  0.000000  0.500000  0.000000  1
  Au  Au9  1  0.500000  0.500000  0.000000  1
