# generated using pymatgen
data_CaCO3
_symmetry_space_group_name_H-M   'P 1'
_cell_length_a   6.44983864
_cell_length_b   6.44983864
_cell_length_c   6.44983864
_cell_angle_alpha   46.11682224
_cell_angle_beta   46.11682232
_cell_angle_gamma   46.11682223
_symmetry_Int_Tables_number   1
_chemical_formula_structural   CaCO3
_chemical_formula_sum   'Ca2 C2 O6'
_cell_volume   127.17026067
_cell_formula_units_Z   2
loop_
 _symmetry_equiv_pos_site_id
 _symmetry_equiv_pos_as_xyz
  1  'x, y, z'
loop_
 _atom_site_type_symbol
 _atom_site_label
 _atom_site_symmetry_multiplicity
 _atom_site_fract_x
 _atom_site_fract_y
 _atom_site_fract_z
 _atom_site_occupancy
  C  C0  1  0.750000  0.750000  0.750000  1
  C  C1  1  0.250000  0.250000  0.250000  1
  O  O2  1  0.750000  0.492792  0.007208  1
  O  O3  1  0.007208  0.750000  0.492792  1
  O  O4  1  0.507208  0.992792  0.250000  1
  O  O5  1  0.250000  0.507208  0.992792  1
  O  O6  1  0.992792  0.250000  0.507208  1
  O  O7  1  0.492792  0.007208  0.750000  1
  Ca  Ca8  1  0.500000  0.500000  0.500000  1
  Ca  Ca9  1  0.000000  0.000000  0.000000  1
