# generated using pymatgen
data_SrHfO3
_symmetry_space_group_name_H-M   'P 1'
_cell_length_a   5.81690292
_cell_length_b   5.81690292
_cell_length_c   8.22876398
_cell_angle_alpha   90.00000000
_cell_angle_beta   90.00000000
_cell_angle_gamma   90.61641420
_symmetry_Int_Tables_number   1
_chemical_formula_structural   SrHfO3
_chemical_formula_sum   'Sr4 Hf4 O12'
_cell_volume   278.41530356
_cell_formula_units_Z   4
loop_
 _symmetry_equiv_pos_site_id
 _symmetry_equiv_pos_as_xyz
  1  'x, y, z'
loop_
 _atom_site_type_symbol
 _atom_site_label
 _atom_site_symmetry_multiplicity
 _atom_site_fract_x
 _atom_site_fract_y
 _atom_site_fract_z
 _atom_site_occupancy
  O  O0  1  0.960176  0.451851  0.750000  1
  O  O1  1  0.039824  0.548149  0.250000  1
  O  O2  1  0.451851  0.960176  0.250000  1
  O  O3  1  0.548149  0.039824  0.750000  1
  O  O4  1  0.218151  0.781849  0.542801  1
  O  O5  1  0.781849  0.218151  0.042801  1
  O  O6  1  0.781849  0.218151  0.457199  1
  O  O7  1  0.218151  0.781849  0.957199  1
  O  O8  1  0.284202  0.284202  0.000000  1
  O  O9  1  0.715798  0.715798  0.500000  1
  O  O10  1  0.715798  0.715798  0.000000  1
  O  O11  1  0.284202  0.284202  0.500000  1
  Sr  Sr12  1  0.990405  0.009595  0.750000  1
  Sr  Sr13  1  0.009595  0.990405  0.250000  1
  Sr  Sr14  1  0.493879  0.506121  0.750000  1
  Sr  Sr15  1  0.506121  0.493879  0.250000  1
  Hf  Hf16  1  0.500000  0.000000  0.000000  1
  Hf  Hf17  1  0.500000  0.000000  0.500000  1
  Hf  Hf18  1  0.000000  0.500000  0.000000  1
  Hf  Hf19  1  0.000000  0.500000  0.500000  1
