# generated using pymatgen
data_Rb2NiF4
_symmetry_space_group_name_H-M   'P 1'
_cell_length_a   4.15374096
_cell_length_b   4.15374096
_cell_length_c   7.53925064
_cell_angle_alpha   105.99028678
_cell_angle_beta   105.99028675
_cell_angle_gamma   90.00000001
_symmetry_Int_Tables_number   1
_chemical_formula_structural   Rb2NiF4
_chemical_formula_sum   'Rb2 Ni1 F4'
_cell_volume   119.80176893
_cell_formula_units_Z   1
loop_
 _symmetry_equiv_pos_site_id
 _symmetry_equiv_pos_as_xyz
  1  'x, y, z'
loop_
 _atom_site_type_symbol
 _atom_site_label
 _atom_site_symmetry_multiplicity
 _atom_site_fract_x
 _atom_site_fract_y
 _atom_site_fract_z
 _atom_site_occupancy
  F  F0  1  0.500000  0.000000  0.000000  1
  F  F1  1  0.000000  0.500000  0.000000  1
  F  F2  1  0.853917  0.853917  0.707834  1
  F  F3  1  0.146083  0.146083  0.292166  1
  Ni  Ni4  1  0.000000  0.000000  0.000000  1
  Rb  Rb5  1  0.646594  0.646594  0.293187  1
  Rb  Rb6  1  0.353406  0.353406  0.706813  1
