# generated using pymatgen
data_Hf(FeSi)2
_symmetry_space_group_name_H-M   'P 1'
_cell_length_a   5.02075628
_cell_length_b   7.03193978
_cell_length_c   7.43059543
_cell_angle_alpha   90.00000000
_cell_angle_beta   90.00000000
_cell_angle_gamma   90.00000000
_symmetry_Int_Tables_number   1
_chemical_formula_structural   Hf(FeSi)2
_chemical_formula_sum   'Hf4 Fe8 Si8'
_cell_volume   262.34204472
_cell_formula_units_Z   4
loop_
 _symmetry_equiv_pos_site_id
 _symmetry_equiv_pos_as_xyz
  1  'x, y, z'
loop_
 _atom_site_type_symbol
 _atom_site_label
 _atom_site_symmetry_multiplicity
 _atom_site_fract_x
 _atom_site_fract_y
 _atom_site_fract_z
 _atom_site_occupancy
  Hf  Hf0  1  0.750000  0.906484  0.751492  1
  Hf  Hf1  1  0.250000  0.093516  0.248508  1
  Hf  Hf2  1  0.750000  0.406484  0.248508  1
  Hf  Hf3  1  0.250000  0.593516  0.751492  1
  Fe  Fe4  1  0.750000  0.516791  0.891504  1
  Fe  Fe5  1  0.250000  0.483209  0.108496  1
  Fe  Fe6  1  0.750000  0.016791  0.108496  1
  Fe  Fe7  1  0.250000  0.983209  0.891504  1
  Fe  Fe8  1  0.000000  0.750000  0.389868  1
  Fe  Fe9  1  0.500000  0.250000  0.610132  1
  Fe  Fe10  1  0.000000  0.250000  0.610132  1
  Fe  Fe11  1  0.500000  0.750000  0.389868  1
  Si  Si12  1  0.750000  0.549062  0.585594  1
  Si  Si13  1  0.250000  0.450938  0.414406  1
  Si  Si14  1  0.750000  0.049062  0.414406  1
  Si  Si15  1  0.250000  0.950938  0.585594  1
  Si  Si16  1  0.000000  0.750000  0.056394  1
  Si  Si17  1  0.500000  0.250000  0.943606  1
  Si  Si18  1  0.000000  0.250000  0.943606  1
  Si  Si19  1  0.500000  0.750000  0.056394  1
