# generated using pymatgen
data_Na2CN2
_symmetry_space_group_name_H-M   'P 1'
_cell_length_a   3.55291610
_cell_length_b   3.55291655
_cell_length_c   5.57815906
_cell_angle_alpha   75.94450498
_cell_angle_beta   75.94450303
_cell_angle_gamma   89.50060580
_symmetry_Int_Tables_number   1
_chemical_formula_structural   Na2CN2
_chemical_formula_sum   'Na2 C1 N2'
_cell_volume   66.16653954
_cell_formula_units_Z   1
loop_
 _symmetry_equiv_pos_site_id
 _symmetry_equiv_pos_as_xyz
  1  'x, y, z'
loop_
 _atom_site_type_symbol
 _atom_site_label
 _atom_site_symmetry_multiplicity
 _atom_site_fract_x
 _atom_site_fract_y
 _atom_site_fract_z
 _atom_site_occupancy
  C  C0  1  0.000000  0.000000  0.000000  1
  Na  Na1  1  0.325497  0.325497  0.309222  1
  Na  Na2  1  0.674503  0.674503  0.690778  1
  N  N3  1  0.155534  0.155534  0.772361  1
  N  N4  1  0.844466  0.844466  0.227639  1
