# generated using pymatgen
data_CuAsS
_symmetry_space_group_name_H-M   'P 1'
_cell_length_a   3.81802319
_cell_length_b   5.46450242
_cell_length_c   11.41511946
_cell_angle_alpha   90.00000000
_cell_angle_beta   90.00000000
_cell_angle_gamma   90.00000000
_symmetry_Int_Tables_number   1
_chemical_formula_structural   CuAsS
_chemical_formula_sum   'Cu4 As4 S4'
_cell_volume   238.16045168
_cell_formula_units_Z   4
loop_
 _symmetry_equiv_pos_site_id
 _symmetry_equiv_pos_as_xyz
  1  'x, y, z'
loop_
 _atom_site_type_symbol
 _atom_site_label
 _atom_site_symmetry_multiplicity
 _atom_site_fract_x
 _atom_site_fract_y
 _atom_site_fract_z
 _atom_site_occupancy
  S  S0  1  0.750000  0.671663  0.668588  1
  S  S1  1  0.250000  0.171663  0.831412  1
  S  S2  1  0.250000  0.328337  0.331412  1
  S  S3  1  0.750000  0.828337  0.168588  1
  Cu  Cu4  1  0.750000  0.563197  0.324549  1
  Cu  Cu5  1  0.750000  0.936803  0.824549  1
  Cu  Cu6  1  0.250000  0.063197  0.175451  1
  Cu  Cu7  1  0.250000  0.436803  0.675451  1
  As  As8  1  0.250000  0.151640  0.513963  1
  As  As9  1  0.750000  0.651640  0.986037  1
  As  As10  1  0.250000  0.348360  0.013963  1
  As  As11  1  0.750000  0.848360  0.486037  1
