# generated using pymatgen
data_KNO3
_symmetry_space_group_name_H-M   'P 1'
_cell_length_a   5.58190383
_cell_length_b   6.52709789
_cell_length_c   9.29792481
_cell_angle_alpha   90.00000000
_cell_angle_beta   90.00000000
_cell_angle_gamma   90.00000000
_symmetry_Int_Tables_number   1
_chemical_formula_structural   KNO3
_chemical_formula_sum   'K4 N4 O12'
_cell_volume   338.75717750
_cell_formula_units_Z   4
loop_
 _symmetry_equiv_pos_site_id
 _symmetry_equiv_pos_as_xyz
  1  'x, y, z'
loop_
 _atom_site_type_symbol
 _atom_site_label
 _atom_site_symmetry_multiplicity
 _atom_site_fract_x
 _atom_site_fract_y
 _atom_site_fract_z
 _atom_site_occupancy
  K  K0  1  0.750000  0.749027  0.910063  1
  K  K1  1  0.250000  0.750973  0.410063  1
  K  K2  1  0.250000  0.250973  0.089937  1
  K  K3  1  0.750000  0.249027  0.589937  1
  N  N4  1  0.750000  0.569804  0.257621  1
  N  N5  1  0.250000  0.930196  0.757621  1
  N  N6  1  0.250000  0.430196  0.742379  1
  N  N7  1  0.750000  0.069804  0.242379  1
  O  O8  1  0.250000  0.929785  0.894047  1
  O  O9  1  0.552755  0.071723  0.310780  1
  O  O10  1  0.052755  0.928277  0.689220  1
  O  O11  1  0.052755  0.428277  0.810780  1
  O  O12  1  0.750000  0.570215  0.394047  1
  O  O13  1  0.447245  0.428277  0.810780  1
  O  O14  1  0.750000  0.070215  0.105953  1
  O  O15  1  0.552755  0.571723  0.189220  1
  O  O16  1  0.947245  0.571723  0.189220  1
  O  O17  1  0.947245  0.071723  0.310780  1
  O  O18  1  0.447245  0.928277  0.689220  1
  O  O19  1  0.250000  0.429785  0.605953  1
