# generated using pymatgen
data_Mg5Si6
_symmetry_space_group_name_H-M   'P 1'
_cell_length_a   4.04546077
_cell_length_b   6.95419929
_cell_length_c   7.83712767
_cell_angle_alpha   109.23701803
_cell_angle_beta   104.95711252
_cell_angle_gamma   89.99999791
_symmetry_Int_Tables_number   1
_chemical_formula_structural   Mg5Si6
_chemical_formula_sum   'Mg5 Si6'
_cell_volume   200.24177503
_cell_formula_units_Z   1
loop_
 _symmetry_equiv_pos_site_id
 _symmetry_equiv_pos_as_xyz
  1  'x, y, z'
loop_
 _atom_site_type_symbol
 _atom_site_label
 _atom_site_symmetry_multiplicity
 _atom_site_fract_x
 _atom_site_fract_y
 _atom_site_fract_z
 _atom_site_occupancy
  Mg  Mg0  1  0.576366  0.365811  0.152732  1
  Mg  Mg1  1  0.423634  0.634189  0.847268  1
  Mg  Mg2  1  0.344318  0.071335  0.688637  1
  Mg  Mg3  1  0.000000  0.000000  0.000000  1
  Mg  Mg4  1  0.655682  0.928665  0.311363  1
  Si  Si5  1  0.207939  0.625090  0.415879  1
  Si  Si6  1  0.193055  0.254026  0.386110  1
  Si  Si7  1  0.806945  0.745974  0.613890  1
  Si  Si8  1  0.792061  0.374910  0.584121  1
  Si  Si9  1  0.057962  0.667774  0.115923  1
  Si  Si10  1  0.942038  0.332226  0.884077  1
