# generated using pymatgen
data_BaMg(CO3)2
_symmetry_space_group_name_H-M   'P 1'
_cell_length_a   6.36884920
_cell_length_b   6.36884920
_cell_length_c   6.36884920
_cell_angle_alpha   47.11349774
_cell_angle_beta   47.11349770
_cell_angle_gamma   47.11349776
_symmetry_Int_Tables_number   1
_chemical_formula_structural   BaMg(CO3)2
_chemical_formula_sum   'Ba1 Mg1 C2 O6'
_cell_volume   126.80751878
_cell_formula_units_Z   1
loop_
 _symmetry_equiv_pos_site_id
 _symmetry_equiv_pos_as_xyz
  1  'x, y, z'
loop_
 _atom_site_type_symbol
 _atom_site_label
 _atom_site_symmetry_multiplicity
 _atom_site_fract_x
 _atom_site_fract_y
 _atom_site_fract_z
 _atom_site_occupancy
  C  C0  1  0.760026  0.760026  0.760026  1
  C  C1  1  0.239974  0.239974  0.239974  1
  O  O2  1  0.616810  0.051561  0.604921  1
  O  O3  1  0.604921  0.616810  0.051561  1
  O  O4  1  0.395079  0.948439  0.383190  1
  O  O5  1  0.383190  0.395079  0.948439  1
  O  O6  1  0.948439  0.383190  0.395079  1
  O  O7  1  0.051561  0.604921  0.616810  1
  Mg  Mg8  1  0.500000  0.500000  0.500000  1
  Ba  Ba9  1  0.000000  0.000000  0.000000  1
