# generated using pymatgen
data_CsCd(NO2)3
_symmetry_space_group_name_H-M   'P 1'
_cell_length_a   5.58032981
_cell_length_b   5.58032482
_cell_length_c   5.58032309
_cell_angle_alpha   90.32920378
_cell_angle_beta   90.32922512
_cell_angle_gamma   90.32920370
_symmetry_Int_Tables_number   1
_chemical_formula_structural   CsCd(NO2)3
_chemical_formula_sum   'Cs1 Cd1 N3 O6'
_cell_volume   173.76291813
_cell_formula_units_Z   1
loop_
 _symmetry_equiv_pos_site_id
 _symmetry_equiv_pos_as_xyz
  1  'x, y, z'
loop_
 _atom_site_type_symbol
 _atom_site_label
 _atom_site_symmetry_multiplicity
 _atom_site_fract_x
 _atom_site_fract_y
 _atom_site_fract_z
 _atom_site_occupancy
  N  N0  1  0.515170  0.078260  0.484832  1
  O  O1  1  0.490057  0.702520  0.950497  1
  Cd  Cd2  1  0.534431  0.534432  0.534431  1
  N  N3  1  0.078259  0.484831  0.515170  1
  O  O4  1  0.487015  0.319255  0.967230  1
  O  O5  1  0.967230  0.487015  0.319257  1
  Cs  Cs6  1  0.000531  0.000530  0.000531  1
  O  O7  1  0.950496  0.490057  0.702520  1
  O  O8  1  0.319257  0.967232  0.487015  1
  O  O9  1  0.702521  0.950498  0.490057  1
  N  N10  1  0.484832  0.515170  0.078260  1
