# generated using pymatgen
data_K2NaAlF6
_symmetry_space_group_name_H-M   'P 1'
_cell_length_a   5.83873301
_cell_length_b   5.83873300
_cell_length_c   5.83873300
_cell_angle_alpha   60.00000000
_cell_angle_beta   60.00000003
_cell_angle_gamma   59.99999996
_symmetry_Int_Tables_number   1
_chemical_formula_structural   K2NaAlF6
_chemical_formula_sum   'K2 Na1 Al1 F6'
_cell_volume   140.74755200
_cell_formula_units_Z   1
loop_
 _symmetry_equiv_pos_site_id
 _symmetry_equiv_pos_as_xyz
  1  'x, y, z'
loop_
 _atom_site_type_symbol
 _atom_site_label
 _atom_site_symmetry_multiplicity
 _atom_site_fract_x
 _atom_site_fract_y
 _atom_site_fract_z
 _atom_site_occupancy
  F  F0  1  0.222688  0.777312  0.777312  1
  F  F1  1  0.222688  0.777312  0.222688  1
  F  F2  1  0.777312  0.222688  0.777312  1
  F  F3  1  0.222688  0.222688  0.777312  1
  F  F4  1  0.777312  0.222688  0.222688  1
  F  F5  1  0.777312  0.777312  0.222688  1
  Na  Na6  1  0.500000  0.500000  0.500000  1
  Al  Al7  1  0.000000  0.000000  0.000000  1
  K  K8  1  0.750000  0.750000  0.750000  1
  K  K9  1  0.250000  0.250000  0.250000  1
