# generated using pymatgen
data_Si3N4
_symmetry_space_group_name_H-M   'P 1'
_cell_length_a   4.57427763
_cell_length_b   5.57508092
_cell_length_c   9.52079961
_cell_angle_alpha   90.00000000
_cell_angle_beta   90.00000000
_cell_angle_gamma   90.00000000
_symmetry_Int_Tables_number   1
_chemical_formula_structural   Si3N4
_chemical_formula_sum   'Si12 N16'
_cell_volume   242.79912640
_cell_formula_units_Z   4
loop_
 _symmetry_equiv_pos_site_id
 _symmetry_equiv_pos_as_xyz
  1  'x, y, z'
loop_
 _atom_site_type_symbol
 _atom_site_label
 _atom_site_symmetry_multiplicity
 _atom_site_fract_x
 _atom_site_fract_y
 _atom_site_fract_z
 _atom_site_occupancy
  Si  Si0  1  0.560217  0.750000  0.908071  1
  Si  Si1  1  0.060217  0.250000  0.591929  1
  Si  Si2  1  0.491554  0.750000  0.226027  1
  Si  Si3  1  0.439783  0.250000  0.091929  1
  Si  Si4  1  0.008446  0.750000  0.726027  1
  Si  Si5  1  0.939783  0.750000  0.408071  1
  Si  Si6  1  0.991554  0.250000  0.273973  1
  Si  Si7  1  0.500000  0.000000  0.500000  1
  Si  Si8  1  0.000000  0.000000  0.000000  1
  Si  Si9  1  0.508446  0.250000  0.773973  1
  Si  Si10  1  0.000000  0.500000  0.000000  1
  Si  Si11  1  0.500000  0.500000  0.500000  1
  N  N12  1  0.312584  0.750000  0.408448  1
  N  N13  1  0.187416  0.750000  0.908448  1
  N  N14  1  0.241934  0.004840  0.662396  1
  N  N15  1  0.243876  0.250000  0.428403  1
  N  N16  1  0.758066  0.504840  0.337604  1
  N  N17  1  0.758066  0.995160  0.337604  1
  N  N18  1  0.741934  0.504840  0.837604  1
  N  N19  1  0.756124  0.750000  0.571597  1
  N  N20  1  0.258066  0.495160  0.162396  1
  N  N21  1  0.741934  0.995160  0.837604  1
  N  N22  1  0.256124  0.250000  0.928403  1
  N  N23  1  0.258066  0.004840  0.162396  1
  N  N24  1  0.687416  0.250000  0.591552  1
  N  N25  1  0.743876  0.750000  0.071597  1
  N  N26  1  0.241934  0.495160  0.662396  1
  N  N27  1  0.812584  0.250000  0.091552  1
