# generated using pymatgen
data_Te2Pd3
_symmetry_space_group_name_H-M   'P 1'
_cell_length_a   3.92260902
_cell_length_b   6.71802820
_cell_length_c   8.02099887
_cell_angle_alpha   90.00000000
_cell_angle_beta   90.00000000
_cell_angle_gamma   106.97452337
_symmetry_Int_Tables_number   1
_chemical_formula_structural   Te2Pd3
_chemical_formula_sum   'Te4 Pd6'
_cell_volume   202.16250420
_cell_formula_units_Z   2
loop_
 _symmetry_equiv_pos_site_id
 _symmetry_equiv_pos_as_xyz
  1  'x, y, z'
loop_
 _atom_site_type_symbol
 _atom_site_label
 _atom_site_symmetry_multiplicity
 _atom_site_fract_x
 _atom_site_fract_y
 _atom_site_fract_z
 _atom_site_occupancy
  Pd  Pd0  1  0.465302  0.930605  0.750000  1
  Pd  Pd1  1  0.534698  0.069395  0.250000  1
  Pd  Pd2  1  0.337282  0.674564  0.066277  1
  Pd  Pd3  1  0.662718  0.325436  0.933723  1
  Pd  Pd4  1  0.662718  0.325436  0.566277  1
  Pd  Pd5  1  0.337282  0.674564  0.433723  1
  Te  Te6  1  0.000000  0.000000  0.000000  1
  Te  Te7  1  0.000000  0.000000  0.500000  1
  Te  Te8  1  0.256923  0.513845  0.750000  1
  Te  Te9  1  0.743077  0.486155  0.250000  1
