# generated using pymatgen
data_RbTaO3
_symmetry_space_group_name_H-M   'P 1'
_cell_length_a   4.08267158
_cell_length_b   4.08267186
_cell_length_c   4.08267196
_cell_angle_alpha   89.96932723
_cell_angle_beta   89.96933476
_cell_angle_gamma   89.96933721
_symmetry_Int_Tables_number   1
_chemical_formula_structural   RbTaO3
_chemical_formula_sum   'Rb1 Ta1 O3'
_cell_volume   68.05079780
_cell_formula_units_Z   1
loop_
 _symmetry_equiv_pos_site_id
 _symmetry_equiv_pos_as_xyz
  1  'x, y, z'
loop_
 _atom_site_type_symbol
 _atom_site_label
 _atom_site_symmetry_multiplicity
 _atom_site_fract_x
 _atom_site_fract_y
 _atom_site_fract_z
 _atom_site_occupancy
  Rb  Rb0  1  0.024360  0.024360  0.024360  1
  Ta  Ta1  1  0.513740  0.513740  0.513740  1
  O  O2  1  0.036315  0.530782  0.530782  1
  O  O3  1  0.530782  0.036315  0.530782  1
  O  O4  1  0.530782  0.530782  0.036315  1
