# generated using pymatgen
data_Nb6Co7
_symmetry_space_group_name_H-M   'P 1'
_cell_length_a   9.14148270
_cell_length_b   9.14148270
_cell_length_c   9.14148270
_cell_angle_alpha   31.01282189
_cell_angle_beta   31.01282185
_cell_angle_gamma   31.01282190
_symmetry_Int_Tables_number   1
_chemical_formula_structural   Nb6Co7
_chemical_formula_sum   'Nb6 Co7'
_cell_volume   179.90415243
_cell_formula_units_Z   1
loop_
 _symmetry_equiv_pos_site_id
 _symmetry_equiv_pos_as_xyz
  1  'x, y, z'
loop_
 _atom_site_type_symbol
 _atom_site_label
 _atom_site_symmetry_multiplicity
 _atom_site_fract_x
 _atom_site_fract_y
 _atom_site_fract_z
 _atom_site_occupancy
  Co  Co0  1  0.089900  0.593327  0.089900  1
  Co  Co1  1  0.089900  0.089900  0.593327  1
  Co  Co2  1  0.593327  0.089900  0.089900  1
  Co  Co3  1  0.406673  0.910100  0.910100  1
  Co  Co4  1  0.910100  0.406673  0.910100  1
  Co  Co5  1  0.910100  0.910100  0.406673  1
  Co  Co6  1  0.000000  0.000000  0.000000  1
  Nb  Nb7  1  0.165728  0.165728  0.165728  1
  Nb  Nb8  1  0.834272  0.834272  0.834272  1
  Nb  Nb9  1  0.344242  0.344242  0.344242  1
  Nb  Nb10  1  0.655758  0.655758  0.655758  1
  Nb  Nb11  1  0.449510  0.449510  0.449510  1
  Nb  Nb12  1  0.550490  0.550490  0.550490  1
