# generated using pymatgen
data_Na2O
_symmetry_space_group_name_H-M   'P 1'
_cell_length_a   6.19337403
_cell_length_b   7.21580510
_cell_length_c   7.21499588
_cell_angle_alpha   96.03101266
_cell_angle_beta   64.60223360
_cell_angle_gamma   149.13364802
_symmetry_Int_Tables_number   1
_chemical_formula_structural   Na2O
_chemical_formula_sum   'Na6 O3'
_cell_volume   123.02423802
_cell_formula_units_Z   3
loop_
 _symmetry_equiv_pos_site_id
 _symmetry_equiv_pos_as_xyz
  1  'x, y, z'
loop_
 _atom_site_type_symbol
 _atom_site_label
 _atom_site_symmetry_multiplicity
 _atom_site_fract_x
 _atom_site_fract_y
 _atom_site_fract_z
 _atom_site_occupancy
  Na  Na0  1  0.105685  0.851379  0.069429  1
  Na  Na1  1  0.174832  0.767601  0.658462  1
  Na  Na2  1  0.148015  0.490452  0.936479  1
  Na  Na3  1  0.342527  0.664676  0.255531  1
  Na  Na4  1  0.954145  0.018451  0.408454  1
  Na  Na5  1  0.309544  0.241123  0.679002  1
  O  O6  1  0.523134  0.189417  0.334332  1
  O  O7  1  0.930312  0.263499  0.667843  1
  O  O8  1  0.397956  0.397598  0.001115  1
