# generated using pymatgen
data_K2P3
_symmetry_space_group_name_H-M   'P 1'
_cell_length_a   6.42487933
_cell_length_b   6.42487933
_cell_length_c   8.42428144
_cell_angle_alpha   110.45353364
_cell_angle_beta   110.45353363
_cell_angle_gamma   94.79614173
_symmetry_Int_Tables_number   1
_chemical_formula_structural   K2P3
_chemical_formula_sum   'K4 P6'
_cell_volume   296.78123253
_cell_formula_units_Z   2
loop_
 _symmetry_equiv_pos_site_id
 _symmetry_equiv_pos_as_xyz
  1  'x, y, z'
loop_
 _atom_site_type_symbol
 _atom_site_label
 _atom_site_symmetry_multiplicity
 _atom_site_fract_x
 _atom_site_fract_y
 _atom_site_fract_z
 _atom_site_occupancy
  P  P0  1  0.709086  0.709086  0.849617  1
  P  P1  1  0.859469  0.859469  0.150383  1
  P  P2  1  0.290914  0.290914  0.150383  1
  P  P3  1  0.140531  0.140531  0.849617  1
  P  P4  1  0.848797  0.848797  0.697594  1
  P  P5  1  0.151203  0.151203  0.302406  1
  K  K6  1  0.750000  0.250000  0.500000  1
  K  K7  1  0.250000  0.750000  0.500000  1
  K  K8  1  0.728497  0.271503  0.000000  1
  K  K9  1  0.271503  0.728497  0.000000  1
