# generated using pymatgen
data_K2NiP2
_symmetry_space_group_name_H-M   'P 1'
_cell_length_a   5.61145707
_cell_length_b   6.42116220
_cell_length_c   7.62269574
_cell_angle_alpha   114.90955662
_cell_angle_beta   90.00000000
_cell_angle_gamma   90.00000000
_symmetry_Int_Tables_number   1
_chemical_formula_structural   K2NiP2
_chemical_formula_sum   'K4 Ni2 P4'
_cell_volume   249.11082538
_cell_formula_units_Z   2
loop_
 _symmetry_equiv_pos_site_id
 _symmetry_equiv_pos_as_xyz
  1  'x, y, z'
loop_
 _atom_site_type_symbol
 _atom_site_label
 _atom_site_symmetry_multiplicity
 _atom_site_fract_x
 _atom_site_fract_y
 _atom_site_fract_z
 _atom_site_occupancy
  P  P0  1  0.750000  0.270434  0.200706  1
  P  P1  1  0.250000  0.069728  0.799294  1
  P  P2  1  0.250000  0.729566  0.799294  1
  P  P3  1  0.750000  0.930272  0.200706  1
  K  K4  1  0.750000  0.416642  0.833284  1
  K  K5  1  0.750000  0.786867  0.573734  1
  K  K6  1  0.250000  0.583358  0.166716  1
  K  K7  1  0.250000  0.213133  0.426266  1
  Ni  Ni8  1  0.000000  0.000000  0.000000  1
  Ni  Ni9  1  0.500000  0.000000  0.000000  1
