# generated using pymatgen
data_Al2ZnO4
_symmetry_space_group_name_H-M   'P 1'
_cell_length_a   5.78267443
_cell_length_b   5.78267443
_cell_length_c   5.78267443
_cell_angle_alpha   59.99999995
_cell_angle_beta   59.99999997
_cell_angle_gamma   59.99999997
_symmetry_Int_Tables_number   1
_chemical_formula_structural   Al2ZnO4
_chemical_formula_sum   'Al4 Zn2 O8'
_cell_volume   136.73233415
_cell_formula_units_Z   2
loop_
 _symmetry_equiv_pos_site_id
 _symmetry_equiv_pos_as_xyz
  1  'x, y, z'
loop_
 _atom_site_type_symbol
 _atom_site_label
 _atom_site_symmetry_multiplicity
 _atom_site_fract_x
 _atom_site_fract_y
 _atom_site_fract_z
 _atom_site_occupancy
  O  O1  1  0.735532  0.735532  0.735532  1
  O  O2  1  0.264468  0.264468  0.706595  1
  O  O3  1  0.264468  0.706595  0.264468  1
  O  O4  1  0.706595  0.264468  0.264468  1
  O  O5  1  0.735532  0.293405  0.735532  1
  O  O6  1  0.293405  0.735532  0.735532  1
  O  O7  1  0.264468  0.264468  0.264468  1
  O  O8  1  0.735532  0.735532  0.293405  1
  Al  Al9  1  0.500000  0.000000  0.500000  1
  Al  Al10  1  0.000000  0.500000  0.500000  1
  Al  Al11  1  0.500000  0.500000  0.000000  1
  Al  Al12  1  0.500000  0.500000  0.500000  1
  Zn  Zn13  1  0.875000  0.875000  0.875000  1
  Zn  Zn14  1  0.125000  0.125000  0.125000  1
