# generated using pymatgen
data_SmPbAu
_symmetry_space_group_name_H-M   'P 1'
_cell_length_a   4.89005950
_cell_length_b   4.88979058
_cell_length_c   7.50911893
_cell_angle_alpha   90.00000000
_cell_angle_beta   90.00000000
_cell_angle_gamma   120.00181927
_symmetry_Int_Tables_number   1
_chemical_formula_structural   SmPbAu
_chemical_formula_sum   'Sm2 Pb2 Au2'
_cell_volume   155.49486649
_cell_formula_units_Z   2
loop_
 _symmetry_equiv_pos_site_id
 _symmetry_equiv_pos_as_xyz
  1  'x, y, z'
loop_
 _atom_site_type_symbol
 _atom_site_label
 _atom_site_symmetry_multiplicity
 _atom_site_fract_x
 _atom_site_fract_y
 _atom_site_fract_z
 _atom_site_occupancy
  Sm  Sm1  1  0.000000  0.000000  0.500000  1
  Sm  Sm2  1  0.000000  0.000000  0.000000  1
  Pb  Pb3  1  0.333333  0.666665  0.750000  1
  Pb  Pb4  1  0.666667  0.333335  0.250000  1
  Au  Au5  1  0.333319  0.666638  0.250000  1
  Au  Au6  1  0.666681  0.333362  0.750000  1
