# generated using pymatgen
data_FeP2O7
_symmetry_space_group_name_H-M   'P 1'
_cell_length_a   5.24109449
_cell_length_b   5.24109450
_cell_length_c   4.61966416
_cell_angle_alpha   81.89990293
_cell_angle_beta   98.10009720
_cell_angle_gamma   79.63615425
_symmetry_Int_Tables_number   1
_chemical_formula_structural   FeP2O7
_chemical_formula_sum   'Fe1 P2 O7'
_cell_volume   121.76815904
_cell_formula_units_Z   1
loop_
 _symmetry_equiv_pos_site_id
 _symmetry_equiv_pos_as_xyz
  1  'x, y, z'
loop_
 _atom_site_type_symbol
 _atom_site_label
 _atom_site_symmetry_multiplicity
 _atom_site_fract_x
 _atom_site_fract_y
 _atom_site_fract_z
 _atom_site_occupancy
  O  O1  1  0.547148  0.547149  0.500001  1
  O  O2  1  0.160652  0.431925  0.733037  1
  O  O3  1  0.086429  0.803768  0.300730  1
  O  O4  1  0.328809  0.848340  0.803796  1
  O  O5  1  0.803768  0.086427  0.699270  1
  O  O6  1  0.848340  0.328809  0.196204  1
  O  O7  1  0.431923  0.160652  0.266962  1
  P  P8  1  0.267395  0.661664  0.588954  1
  P  P9  1  0.661664  0.267395  0.411046  1
  Fe  Fe10  1  0.110608  0.110608  0.000000  1
