# generated using pymatgen
data_LiFe(PO3)4
_symmetry_space_group_name_H-M   'P 1'
_cell_length_a   7.31629944
_cell_length_b   7.31629942
_cell_length_c   9.85023908
_cell_angle_alpha   82.33072395
_cell_angle_beta   69.00160645
_cell_angle_gamma   109.74738759
_symmetry_Int_Tables_number   1
_chemical_formula_structural   LiFe(PO3)4
_chemical_formula_sum   'Li2 Fe2 P8 O24'
_cell_volume   443.43861556
_cell_formula_units_Z   2
loop_
 _symmetry_equiv_pos_site_id
 _symmetry_equiv_pos_as_xyz
  1  'x, y, z'
loop_
 _atom_site_type_symbol
 _atom_site_label
 _atom_site_symmetry_multiplicity
 _atom_site_fract_x
 _atom_site_fract_y
 _atom_site_fract_z
 _atom_site_occupancy
  Li  Li1  1  0.217004  0.967005  0.750000  1
  Li  Li2  1  0.782995  0.032995  0.250000  1
  O  O3  1  0.576026  0.782139  0.930776  1
  O  O4  1  0.959541  0.344252  0.849921  1
  O  O5  1  0.040459  0.655748  0.150079  1
  O  O6  1  0.112740  0.807889  0.569760  1
  O  O7  1  0.194134  0.674433  0.339413  1
  O  O8  1  0.501813  0.848695  0.406523  1
  O  O9  1  0.296785  0.699956  0.831805  1
  O  O10  1  0.122351  0.317500  0.069760  1
  O  O11  1  0.212915  0.506802  0.569225  1
  O  O12  1  0.755220  0.908337  0.093476  1
  O  O13  1  0.486153  0.466453  0.839413  1
  O  O14  1  0.513846  0.533547  0.160587  1
  O  O15  1  0.694174  0.809463  0.650079  1
  O  O16  1  0.031761  0.128589  0.668195  1
  O  O17  1  0.805866  0.325567  0.660587  1
  O  O18  1  0.305826  0.190537  0.349921  1
  O  O19  1  0.887259  0.192111  0.430241  1
  O  O20  1  0.423975  0.217861  0.069225  1
  O  O21  1  0.244781  0.091663  0.906524  1
  O  O22  1  0.787084  0.493198  0.430776  1
  O  O23  1  0.877649  0.682500  0.930240  1
  O  O24  1  0.703215  0.300044  0.168196  1
  O  O25  1  0.498188  0.151305  0.593476  1
  O  O26  1  0.968240  0.871410  0.331805  1
  P  P27  1  0.297831  0.259670  0.972111  1
  P  P28  1  0.731780  0.269942  0.527889  1
  P  P29  1  0.998843  0.681865  0.304676  1
  P  P30  1  0.268219  0.730058  0.472111  1
  P  P31  1  0.702169  0.740330  0.027889  1
  P  P32  1  0.513460  0.696480  0.804676  1
  P  P33  1  0.486540  0.303520  0.195324  1
  P  P34  1  0.001156  0.318135  0.695325  1
  Fe  Fe35  1  1.000000  0.000000  0.500000  1
  Fe  Fe36  1  0.000000  0.499999  1.000000  1
