# generated using pymatgen
data_NaMoPO6
_symmetry_space_group_name_H-M   'P 1'
_cell_length_a   6.45592116
_cell_length_b   12.22118961
_cell_length_c   12.27456302
_cell_angle_alpha   90.00000000
_cell_angle_beta   91.22181056
_cell_angle_gamma   90.00000000
_symmetry_Int_Tables_number   1
_chemical_formula_structural   NaMoPO6
_chemical_formula_sum   'Na8 Mo8 P8 O48'
_cell_volume   968.23100972
_cell_formula_units_Z   8
loop_
 _symmetry_equiv_pos_site_id
 _symmetry_equiv_pos_as_xyz
  1  'x, y, z'
loop_
 _atom_site_type_symbol
 _atom_site_label
 _atom_site_symmetry_multiplicity
 _atom_site_fract_x
 _atom_site_fract_y
 _atom_site_fract_z
 _atom_site_occupancy
  O  O1  1  0.741868  0.831477  0.259317  1
  O  O2  1  0.758132  0.331477  0.240683  1
  O  O3  1  0.258132  0.168523  0.740684  1
  O  O4  1  0.241868  0.668523  0.759316  1
  O  O5  1  0.736987  0.534159  0.142816  1
  O  O6  1  0.763013  0.034159  0.357184  1
  O  O7  1  0.263013  0.465841  0.857184  1
  O  O8  1  0.236987  0.965841  0.642816  1
  O  O9  1  0.244021  0.704235  0.267798  1
  O  O10  1  0.255979  0.204235  0.232202  1
  O  O11  1  0.755979  0.295765  0.732202  1
  O  O12  1  0.744021  0.795765  0.767798  1
  O  O13  1  0.269643  0.676742  0.492173  1
  O  O14  1  0.230357  0.176742  0.007827  1
  O  O15  1  0.730357  0.323258  0.507827  1
  O  O16  1  0.769643  0.823258  0.992173  1
  O  O17  1  0.266375  0.569063  0.062500  1
  O  O18  1  0.759037  0.736456  0.470506  1
  O  O19  1  0.233625  0.069063  0.437500  1
  O  O20  1  0.766375  0.930937  0.562500  1
  O  O21  1  0.233690  0.975020  0.253219  1
  O  O22  1  0.266310  0.475020  0.246781  1
  O  O23  1  0.766310  0.024980  0.746781  1
  O  O24  1  0.733690  0.524980  0.753219  1
  O  O25  1  0.946971  0.582210  0.371266  1
  O  O26  1  0.553029  0.082210  0.128734  1
  O  O27  1  0.053029  0.417790  0.628734  1
  O  O28  1  0.446971  0.917790  0.871266  1
  O  O29  1  0.565308  0.587505  0.360475  1
  O  O30  1  0.934692  0.087505  0.139525  1
  O  O31  1  0.434692  0.412495  0.639525  1
  O  O32  1  0.065308  0.912495  0.860475  1
  O  O33  1  0.941374  0.606206  0.911196  1
  O  O34  1  0.558626  0.106206  0.588804  1
  O  O35  1  0.058626  0.393794  0.088804  1
  O  O36  1  0.441374  0.893794  0.411196  1
  O  O37  1  0.559291  0.617231  0.911512  1
  O  O38  1  0.940709  0.117231  0.588488  1
  O  O39  1  0.440709  0.382769  0.088488  1
  O  O40  1  0.059291  0.882769  0.411512  1
  O  O41  1  0.737520  0.549737  0.543631  1
  O  O42  1  0.762480  0.049737  0.956369  1
  O  O43  1  0.262480  0.450263  0.456369  1
  O  O44  1  0.237520  0.950263  0.043631  1
  O  O45  1  0.259037  0.763544  0.970506  1
  O  O46  1  0.240963  0.263544  0.529494  1
  O  O47  1  0.740963  0.236456  0.029494  1
  O  O48  1  0.733625  0.430937  0.937500  1
  Na  Na49  1  0.047707  0.825418  0.153451  1
  Na  Na50  1  0.452293  0.325418  0.346549  1
  Na  Na51  1  0.952293  0.174582  0.846549  1
  Na  Na52  1  0.547707  0.674582  0.653451  1
  Na  Na53  1  0.543879  0.702007  0.110280  1
  Na  Na54  1  0.956121  0.202007  0.389720  1
  Na  Na55  1  0.456121  0.297993  0.889720  1
  Na  Na56  1  0.043879  0.797993  0.610280  1
  P  P57  1  0.241365  0.958950  0.377205  1
  P  P58  1  0.258635  0.458950  0.122795  1
  P  P59  1  0.758635  0.041050  0.622795  1
  P  P60  1  0.741365  0.541050  0.877205  1
  P  P61  1  0.753650  0.614274  0.437175  1
  P  P62  1  0.746350  0.114274  0.062825  1
  P  P63  1  0.246350  0.385726  0.562825  1
  P  P64  1  0.253650  0.885726  0.937175  1
  Mo  Mo65  1  0.743540  0.896069  0.387243  1
  Mo  Mo66  1  0.756460  0.396069  0.112757  1
  Mo  Mo67  1  0.256460  0.103931  0.612757  1
  Mo  Mo68  1  0.243540  0.603931  0.887243  1
  Mo  Mo69  1  0.254259  0.604255  0.369512  1
  Mo  Mo70  1  0.245741  0.104255  0.130488  1
  Mo  Mo71  1  0.745741  0.395745  0.630488  1
  Mo  Mo72  1  0.754259  0.895745  0.869512  1
