# generated using pymatgen
data_Er2Se3
_symmetry_space_group_name_H-M   'P 1'
_cell_length_a   22.43498811
_cell_length_b   8.63629386
_cell_length_c   8.63629396
_cell_angle_alpha   89.99999921
_cell_angle_beta   54.73062150
_cell_angle_gamma   54.73062104
_symmetry_Int_Tables_number   1
_chemical_formula_structural   Er2Se3
_chemical_formula_sum   'Er16 Se24'
_cell_volume   965.85750586
_cell_formula_units_Z   8
loop_
 _symmetry_equiv_pos_site_id
 _symmetry_equiv_pos_as_xyz
  1  'x, y, z'
loop_
 _atom_site_type_symbol
 _atom_site_label
 _atom_site_symmetry_multiplicity
 _atom_site_fract_x
 _atom_site_fract_y
 _atom_site_fract_z
 _atom_site_occupancy
  Er  Er1  1  0.995163  0.123165  0.767110  1
  Er  Er2  1  0.083354  0.624969  0.374969  1
  Er  Er3  1  0.166667  0.250000  0.633173  1
  Er  Er4  1  0.338170  0.376835  0.252598  1
  Er  Er5  1  0.249979  0.875031  0.125031  1
  Er  Er6  1  0.338170  0.108653  0.732890  1
  Er  Er7  1  0.166667  0.750000  0.866827  1
  Er  Er8  1  0.495163  0.267110  0.623165  1
  Er  Er9  1  0.666667  0.366827  0.250000  1
  Er  Er10  1  0.583354  0.874969  0.124969  1
  Er  Er11  1  0.666667  0.133173  0.750000  1
  Er  Er12  1  0.495163  0.747402  0.891347  1
  Er  Er13  1  0.749979  0.625031  0.375031  1
  Er  Er14  1  0.838170  0.232890  0.608653  1
  Er  Er15  1  0.995163  0.391347  0.247402  1
  Er  Er16  1  0.838170  0.752598  0.876835  1
  Se  Se17  1  0.127360  0.489586  0.992360  1
  Se  Se18  1  0.047559  0.358640  0.493754  1
  Se  Se19  1  0.047559  0.998681  0.363567  1
  Se  Se20  1  0.285774  0.141360  0.136433  1
  Se  Se21  1  0.285774  0.501319  0.006246  1
  Se  Se22  1  0.127360  0.628333  0.625560  1
  Se  Se23  1  0.205973  0.871667  0.507640  1
  Se  Se24  1  0.451612  0.493672  0.999959  1
  Se  Se25  1  0.381722  0.354795  0.506328  1
  Se  Se26  1  0.205973  0.010414  0.874440  1
  Se  Se27  1  0.381722  0.000041  0.348508  1
  Se  Se28  1  0.627360  0.125560  0.128333  1
  Se  Se29  1  0.627360  0.492360  0.989586  1
  Se  Se30  1  0.451612  0.651492  0.645205  1
  Se  Se31  1  0.547559  0.863567  0.498681  1
  Se  Se32  1  0.785774  0.506246  0.001319  1
  Se  Se33  1  0.705973  0.374440  0.510414  1
  Se  Se34  1  0.547559  0.993754  0.858640  1
  Se  Se35  1  0.951612  0.145205  0.151492  1
  Se  Se36  1  0.705973  0.007640  0.371667  1
  Se  Se37  1  0.951612  0.499959  0.993672  1
  Se  Se38  1  0.785774  0.636433  0.641360  1
  Se  Se39  1  0.881722  0.848508  0.500041  1
  Se  Se40  1  0.881722  0.006328  0.854795  1
