# generated using pymatgen
data_MgAl2O4
_symmetry_space_group_name_H-M   'P 1'
_cell_length_a   5.77439104
_cell_length_b   5.77426438
_cell_length_c   17.33633026
_cell_angle_alpha   60.01884281
_cell_angle_beta   60.01773508
_cell_angle_gamma   59.98526131
_symmetry_Int_Tables_number   1
_chemical_formula_structural   MgAl2O4
_chemical_formula_sum   'Mg6 Al12 O24'
_cell_volume   408.80538164
_cell_formula_units_Z   6
loop_
 _symmetry_equiv_pos_site_id
 _symmetry_equiv_pos_as_xyz
  1  'x, y, z'
loop_
 _atom_site_type_symbol
 _atom_site_label
 _atom_site_symmetry_multiplicity
 _atom_site_fract_x
 _atom_site_fract_y
 _atom_site_fract_z
 _atom_site_occupancy
  Al  Al1  1  0.247510  0.247528  0.085846  1
  Al  Al2  1  0.119332  0.626558  0.209178  1
  Al  Al3  1  0.626556  0.119340  0.209177  1
  Al  Al4  1  0.123648  0.624455  0.542495  1
  Al  Al5  1  0.626534  0.626535  0.209200  1
  Al  Al6  1  0.623105  0.623103  0.376917  1
  Al  Al7  1  0.624456  0.123646  0.542497  1
  Al  Al8  1  0.120155  0.628708  0.874207  1
  Al  Al9  1  0.624468  0.624460  0.542489  1
  Al  Al10  1  0.628705  0.120156  0.874210  1
  Al  Al11  1  0.624175  0.624166  0.709107  1
  Al  Al12  1  0.628622  0.628620  0.874147  1
  Mg  Mg13  1  0.003874  0.003839  0.996037  1
  Mg  Mg14  1  0.999794  0.999768  0.333545  1
  Mg  Mg15  1  0.628276  0.628294  0.038482  1
  Mg  Mg16  1  0.250988  0.251009  0.415671  1
  Mg  Mg17  1  1.001187  1.001167  0.665466  1
  Mg  Mg18  1  0.246338  0.246358  0.753675  1
  O  O19  1  0.370351  0.370364  0.133106  1
  O  O20  1  0.370302  0.860004  0.133139  1
  O  O21  1  0.392721  0.392734  0.273938  1
  O  O22  1  0.859985  0.370327  0.133132  1
  O  O23  1  0.388312  0.388301  0.462901  1
  O  O24  1  0.416462  0.859135  0.288435  1
  O  O25  1  0.388291  0.834714  0.462905  1
  O  O26  1  0.859140  0.416451  0.288433  1
  O  O27  1  0.387594  0.387609  0.612416  1
  O  O28  1  0.862162  0.862160  0.137828  1
  O  O29  1  0.834705  0.388294  0.462903  1
  O  O30  1  0.859108  0.859118  0.288437  1
  O  O31  1  0.390469  0.390457  0.796915  1
  O  O32  1  0.416571  0.861641  0.620054  1
  O  O33  1  0.390434  0.828245  0.796933  1
  O  O34  1  0.861656  0.416555  0.620048  1
  O  O35  1  0.376397  0.376408  0.956926  1
  O  O36  1  0.861670  0.861657  0.471679  1
  O  O37  1  0.828242  0.390433  0.796931  1
  O  O38  1  0.861592  0.861593  0.620072  1
  O  O39  1  0.412792  0.874369  0.946152  1
  O  O40  1  0.874376  0.412782  0.946147  1
  O  O41  1  0.864621  0.864607  0.802020  1
  O  O42  1  0.874325  0.874332  0.946200  1
