# generated using pymatgen
data_LaTe2Se
_symmetry_space_group_name_H-M   'P 1'
_cell_length_a   4.33274160
_cell_length_b   4.34631585
_cell_length_c   13.53608627
_cell_angle_alpha   90.00000000
_cell_angle_beta   99.20945624
_cell_angle_gamma   90.00000000
_symmetry_Int_Tables_number   1
_chemical_formula_structural   LaTe2Se
_chemical_formula_sum   'La2 Te4 Se2'
_cell_volume   251.61856306
_cell_formula_units_Z   2
loop_
 _symmetry_equiv_pos_site_id
 _symmetry_equiv_pos_as_xyz
  1  'x, y, z'
loop_
 _atom_site_type_symbol
 _atom_site_label
 _atom_site_symmetry_multiplicity
 _atom_site_fract_x
 _atom_site_fract_y
 _atom_site_fract_z
 _atom_site_occupancy
  Se  Se1  1  0.705110  0.250000  0.410219  1
  Se  Se2  1  0.294890  0.750000  0.589781  1
  Te  Te3  1  0.579484  0.750000  0.158969  1
  Te  Te4  1  0.420516  0.250000  0.841031  1
  Te  Te5  1  0.079505  0.250000  0.159010  1
  Te  Te6  1  0.920495  0.750000  0.840990  1
  La  La7  1  0.180417  0.750000  0.360835  1
  La  La8  1  0.819583  0.250000  0.639165  1
