# generated using pymatgen
data_BaLa2TiCr2O9
_symmetry_space_group_name_H-M   'P 1'
_cell_length_a   3.96347802
_cell_length_b   35.67655159
_cell_length_c   5.62714660
_cell_angle_alpha   44.78376376
_cell_angle_beta   90.00000000
_cell_angle_gamma   90.00000000
_symmetry_Int_Tables_number   1
_chemical_formula_structural   BaLa2TiCr2O9
_chemical_formula_sum   'Ba3 La6 Ti3 Cr6 O27'
_cell_volume   560.51509397
_cell_formula_units_Z   3
loop_
 _symmetry_equiv_pos_site_id
 _symmetry_equiv_pos_as_xyz
  1  'x, y, z'
loop_
 _atom_site_type_symbol
 _atom_site_label
 _atom_site_symmetry_multiplicity
 _atom_site_fract_x
 _atom_site_fract_y
 _atom_site_fract_z
 _atom_site_occupancy
  Ba  Ba1  1  0.000000  0.997181  0.012687  1
  Ba  Ba2  1  0.000000  0.111111  -0.000001  1
  Ba  Ba3  1  0.000000  0.225041  0.987320  1
  Cr  Cr4  1  0.500000  0.335527  0.490082  1
  Cr  Cr5  1  0.500000  0.446171  0.492233  1
  Cr  Cr6  1  0.500000  0.555865  0.498612  1
  Cr  Cr7  1  0.500000  0.666358  0.501393  1
  Cr  Cr8  1  0.500000  0.776051  0.507777  1
  Cr  Cr9  1  0.500000  0.886695  0.509832  1
  La  La10  1  0.000000  0.338791  0.975443  1
  La  La11  1  0.000000  0.444391  0.000230  1
  La  La12  1  0.000000  0.557171  0.992739  1
  La  La13  1  0.000000  0.665052  0.007277  1
  La  La14  1  0.000000  0.777831  0.999754  1
  La  La15  1  0.000000  0.883431  0.024567  1
  O  O16  1  0.000000  0.880356  0.538399  1
  O  O17  1  0.500000  0.054118  0.507082  1
  O  O18  1  0.500000  0.168106  0.492911  1
  O  O19  1  0.500000  0.282217  0.465851  1
  O  O20  1  0.500000  0.500971  0.495288  1
  O  O21  1  0.500000  0.390696  0.492314  1
  O  O22  1  0.500000  0.611129  0.499847  1
  O  O23  1  0.500000  0.721220  0.505001  1
  O  O24  1  0.500000  0.831545  0.507507  1
  O  O25  1  0.500000  0.939997  0.534210  1
  O  O26  1  0.500000  0.054117  0.005861  1
  O  O27  1  0.500000  0.168105  0.994143  1
  O  O28  1  0.500000  0.282225  0.994190  1
  O  O29  1  0.500000  0.390677  0.991415  1
  O  O30  1  0.500000  0.501002  -0.004018  1
  O  O31  1  0.500000  0.721251  1.004029  1
  O  O32  1  0.500000  0.611093  1.000007  1
  O  O33  1  0.500000  0.940005  0.005798  1
  O  O34  1  0.500000  0.831526  0.008578  1
  O  O35  1  0.000000  0.994868  0.523097  1
  O  O36  1  0.000000  0.111111  0.500001  1
  O  O37  1  0.000000  0.227354  0.476908  1
  O  O38  1  0.000000  0.341866  0.461602  1
  O  O39  1  0.000000  0.443946  0.502247  1
  O  O40  1  0.000000  0.557864  0.489609  1
  O  O41  1  0.000000  0.664359  0.510383  1
  O  O42  1  0.000000  0.778276  0.497768  1
  Ti  Ti43  1  0.500000  0.996578  0.515408  1
  Ti  Ti44  1  0.500000  0.111111  0.500008  1
  Ti  Ti45  1  0.500000  0.225644  0.484610  1
