# generated using pymatgen
data_Pr(P3Ru)4
_symmetry_space_group_name_H-M   'P 1'
_cell_length_a   8.10620859
_cell_length_b   8.10620859
_cell_length_c   8.10620859
_cell_angle_alpha   90.00000000
_cell_angle_beta   90.00000000
_cell_angle_gamma   90.00000000
_symmetry_Int_Tables_number   1
_chemical_formula_structural   Pr(P3Ru)4
_chemical_formula_sum   'Pr2 P24 Ru8'
_cell_volume   532.66397369
_cell_formula_units_Z   2
loop_
 _symmetry_equiv_pos_site_id
 _symmetry_equiv_pos_as_xyz
  1  'x, y, z'
loop_
 _atom_site_type_symbol
 _atom_site_label
 _atom_site_symmetry_multiplicity
 _atom_site_fract_x
 _atom_site_fract_y
 _atom_site_fract_z
 _atom_site_occupancy
  P  P1  1  0.500000  0.141981  0.643640  1
  P  P2  1  0.500000  0.858019  0.356360  1
  P  P3  1  0.500000  0.141981  0.356360  1
  P  P4  1  0.858019  0.356360  0.500000  1
  P  P5  1  0.356360  0.500000  0.141981  1
  P  P6  1  0.356360  0.500000  0.858019  1
  P  P7  1  0.141981  0.643640  0.500000  1
  P  P8  1  0.643640  0.500000  0.141981  1
  P  P9  1  0.141981  0.356360  0.500000  1
  P  P10  1  0.858019  0.643640  0.500000  1
  P  P11  1  0.000000  0.357971  0.143778  1
  P  P12  1  0.143778  0.000000  0.357971  1
  P  P13  1  0.357971  0.143778  0.000000  1
  P  P14  1  0.642029  0.856222  0.000000  1
  P  P15  1  0.143778  0.000000  0.642029  1
  P  P16  1  0.642029  0.143778  0.000000  1
  P  P17  1  0.856222  0.000000  0.357971  1
  P  P18  1  0.856222  0.000000  0.642029  1
  P  P19  1  0.357971  0.856222  0.000000  1
  P  P20  1  0.000000  0.642029  0.856222  1
  P  P21  1  0.000000  0.357971  0.856222  1
  P  P22  1  0.000000  0.642029  0.143778  1
  P  P23  1  0.500000  0.858019  0.643640  1
  P  P24  1  0.643640  0.500000  0.858019  1
  Ru  Ru25  1  0.250073  0.749927  0.250073  1
  Ru  Ru26  1  0.749927  0.250073  0.250073  1
  Ru  Ru27  1  0.250073  0.250073  0.749927  1
  Ru  Ru28  1  0.749927  0.749927  0.749927  1
  Ru  Ru29  1  0.749927  0.250073  0.749927  1
  Ru  Ru30  1  0.250073  0.749927  0.749927  1
  Ru  Ru31  1  0.749927  0.749927  0.250073  1
  Ru  Ru32  1  0.250073  0.250073  0.250073  1
  Pr  Pr33  1  0.500000  0.500000  0.500000  1
  Pr  Pr34  1  0.000000  0.000000  0.000000  1
