# generated using pymatgen
data_LiCoP2O7
_symmetry_space_group_name_H-M   'P 1'
_cell_length_a   8.24876916
_cell_length_b   5.06004449
_cell_length_c   12.14255880
_cell_angle_alpha   90.00000000
_cell_angle_beta   80.47528572
_cell_angle_gamma   90.00000000
_symmetry_Int_Tables_number   1
_chemical_formula_structural   LiCoP2O7
_chemical_formula_sum   'Li4 Co4 P8 O28'
_cell_volume   499.83308980
_cell_formula_units_Z   4
loop_
 _symmetry_equiv_pos_site_id
 _symmetry_equiv_pos_as_xyz
  1  'x, y, z'
loop_
 _atom_site_type_symbol
 _atom_site_label
 _atom_site_symmetry_multiplicity
 _atom_site_fract_x
 _atom_site_fract_y
 _atom_site_fract_z
 _atom_site_occupancy
  Co  Co1  1  0.237077  0.224588  0.027646  1
  Co  Co2  1  0.262923  0.724588  0.472354  1
  Co  Co3  1  0.737077  0.275412  0.527646  1
  Co  Co4  1  0.762923  0.775412  0.972354  1
  Li  Li5  1  0.118525  0.270373  0.295995  1
  Li  Li6  1  0.381475  0.770373  0.204005  1
  Li  Li7  1  0.618525  0.229627  0.795995  1
  Li  Li8  1  0.881475  0.729627  0.704005  1
  O  O9  1  0.091253  0.037228  0.157050  1
  O  O10  1  0.164773  0.548086  0.148795  1
  O  O11  1  0.088662  0.660419  0.387736  1
  O  O12  1  0.089203  0.921234  0.595587  1
  O  O13  1  0.109478  0.284977  0.741717  1
  O  O14  1  0.221632  0.368767  0.542084  1
  O  O15  1  0.069585  0.289856  0.947428  1
  O  O16  1  0.411338  0.160419  0.112265  1
  O  O17  1  0.335227  0.048086  0.351205  1
  O  O18  1  0.408747  0.537228  0.342950  1
  O  O19  1  0.430415  0.789856  0.552572  1
  O  O20  1  0.278368  0.868767  0.957916  1
  O  O21  1  0.390522  0.784977  0.758283  1
  O  O22  1  0.589203  0.578766  0.095587  1
  O  O23  1  0.410797  0.421234  0.904413  1
  O  O24  1  0.609478  0.215023  0.241717  1
  O  O25  1  0.721632  0.131233  0.042084  1
  O  O26  1  0.569585  0.210144  0.447428  1
  O  O27  1  0.591253  0.462772  0.657050  1
  O  O28  1  0.664773  0.951914  0.648795  1
  O  O29  1  0.588662  0.839581  0.887736  1
  O  O30  1  0.930415  0.710144  0.052572  1
  O  O31  1  0.778368  0.631233  0.457916  1
  O  O32  1  0.890522  0.715023  0.258283  1
  O  O33  1  0.910797  0.078766  0.404413  1
  O  O34  1  0.911338  0.339581  0.612264  1
  O  O35  1  0.835227  0.451914  0.851205  1
  O  O36  1  0.908747  0.962772  0.842950  1
  P  P37  1  0.027857  0.753893  0.147598  1
  P  P38  1  0.084518  0.221246  0.614409  1
  P  P39  1  0.472143  0.253893  0.352402  1
  P  P40  1  0.584518  0.278754  0.114409  1
  P  P41  1  0.415482  0.721246  0.885591  1
  P  P42  1  0.527857  0.746107  0.647598  1
  P  P43  1  0.915482  0.778754  0.385591  1
  P  P44  1  0.972143  0.246107  0.852402  1
