# generated using pymatgen
data_Sc8Te3
_symmetry_space_group_name_H-M   'P 1'
_cell_length_a   3.85377067
_cell_length_b   14.69378317
_cell_length_c   19.20370763
_cell_angle_alpha   82.03246107
_cell_angle_beta   84.24129370
_cell_angle_gamma   82.46475256
_symmetry_Int_Tables_number   1
_chemical_formula_structural   Sc8Te3
_chemical_formula_sum   'Sc32 Te12'
_cell_volume   1063.89575137
_cell_formula_units_Z   4
loop_
 _symmetry_equiv_pos_site_id
 _symmetry_equiv_pos_as_xyz
  1  'x, y, z'
loop_
 _atom_site_type_symbol
 _atom_site_label
 _atom_site_symmetry_multiplicity
 _atom_site_fract_x
 _atom_site_fract_y
 _atom_site_fract_z
 _atom_site_occupancy
  Te  Te1  1  0.259371  0.201676  0.279581  1
  Te  Te2  1  0.740629  0.798324  0.720419  1
  Te  Te3  1  0.104575  0.477000  0.313849  1
  Te  Te4  1  0.895425  0.522999  0.686151  1
  Te  Te5  1  0.943734  0.285939  0.826594  1
  Te  Te6  1  0.056266  0.714061  0.173406  1
  Te  Te7  1  0.574193  0.044341  0.807272  1
  Te  Te8  1  0.425807  0.955659  0.192728  1
  Te  Te9  1  0.130273  0.777493  0.961962  1
  Te  Te10  1  0.869727  0.222507  0.038038  1
  Te  Te11  1  0.131243  0.268259  0.469256  1
  Te  Te12  1  0.868757  0.731741  0.530744  1
  Sc  Sc13  1  0.591875  0.226939  0.589311  1
  Sc  Sc14  1  0.408125  0.773061  0.410689  1
  Sc  Sc15  1  0.723295  0.155713  0.397697  1
  Sc  Sc16  1  0.276705  0.844287  0.602303  1
  Sc  Sc17  1  0.697304  0.359740  0.245651  1
  Sc  Sc18  1  0.302696  0.640260  0.754349  1
  Sc  Sc19  1  0.573759  0.420882  0.431600  1
  Sc  Sc20  1  0.426241  0.579118  0.568400  1
  Sc  Sc21  1  0.562238  0.928831  0.946693  1
  Sc  Sc22  1  0.437762  0.071169  0.053307  1
  Sc  Sc23  1  0.991846  0.103380  0.912928  1
  Sc  Sc24  1  0.008154  0.896620  0.087072  1
  Sc  Sc25  1  0.061404  0.162173  0.715018  1
  Sc  Sc26  1  0.938596  0.837827  0.284982  1
  Sc  Sc27  1  0.201316  0.067639  0.529729  1
  Sc  Sc28  1  0.798684  0.932361  0.470271  1
  Sc  Sc29  1  0.287286  0.291871  0.133556  1
  Sc  Sc30  1  0.712714  0.708129  0.866444  1
  Sc  Sc31  1  0.328738  0.997906  0.344617  1
  Sc  Sc32  1  0.671262  0.002094  0.655383  1
  Sc  Sc33  1  0.366004  0.330474  0.937517  1
  Sc  Sc34  1  0.633996  0.669526  0.062483  1
  Sc  Sc35  1  0.538297  0.637319  0.286087  1
  Sc  Sc36  1  0.461703  0.362681  0.713913  1
  Sc  Sc37  1  0.167445  0.512892  0.152219  1
  Sc  Sc38  1  0.832555  0.487108  0.847781  1
  Sc  Sc39  1  0.849217  0.111257  0.190309  1
  Sc  Sc40  1  0.150783  0.888743  0.809691  1
  Sc  Sc41  1  0.760795  0.436016  0.042394  1
  Sc  Sc42  1  0.239205  0.563984  0.957606  1
  Sc  Sc43  1  0.011806  0.408901  0.567487  1
  Sc  Sc44  1  0.988194  0.591099  0.432513  1
