# generated using pymatgen
data_NaScB2O5
_symmetry_space_group_name_H-M   'P 1'
_cell_length_a   5.99960835
_cell_length_b   7.29569997
_cell_length_c   9.88385445
_cell_angle_alpha   90.00000000
_cell_angle_beta   90.00000000
_cell_angle_gamma   108.54735159
_symmetry_Int_Tables_number   1
_chemical_formula_structural   NaScB2O5
_chemical_formula_sum   'Na4 Sc4 B8 O20'
_cell_volume   410.15927253
_cell_formula_units_Z   4
loop_
 _symmetry_equiv_pos_site_id
 _symmetry_equiv_pos_as_xyz
  1  'x, y, z'
loop_
 _atom_site_type_symbol
 _atom_site_label
 _atom_site_symmetry_multiplicity
 _atom_site_fract_x
 _atom_site_fract_y
 _atom_site_fract_z
 _atom_site_occupancy
  Na  Na1  1  0.699127  0.220650  0.418662  1
  Na  Na2  1  0.199127  0.220650  0.081338  1
  Na  Na3  1  0.800873  0.779350  0.918662  1
  Na  Na4  1  0.300873  0.779350  0.581338  1
  Sc  Sc5  1  0.216788  0.754019  0.172170  1
  Sc  Sc6  1  0.783212  0.245981  0.827830  1
  Sc  Sc7  1  0.716788  0.754019  0.327830  1
  Sc  Sc8  1  0.283212  0.245981  0.672170  1
  B  B9  1  0.169686  0.090242  0.380248  1
  B  B10  1  0.330314  0.909758  0.880248  1
  B  B11  1  0.830314  0.909758  0.619752  1
  B  B12  1  0.745835  0.445492  0.095157  1
  B  B13  1  0.245835  0.445492  0.404843  1
  B  B14  1  0.669686  0.090242  0.119752  1
  B  B15  1  0.254165  0.554508  0.904843  1
  B  B16  1  0.754165  0.554508  0.595157  1
  O  O17  1  0.842889  0.730415  0.669199  1
  O  O18  1  0.721268  0.920576  0.500946  1
  O  O19  1  0.074655  0.934325  0.295340  1
  O  O20  1  0.657111  0.269585  0.169199  1
  O  O21  1  0.659392  0.386703  0.668981  1
  O  O22  1  0.266903  0.552789  0.041372  1
  O  O23  1  0.159392  0.386703  0.831019  1
  O  O24  1  0.221268  0.920576  0.999054  1
  O  O25  1  0.157111  0.269585  0.330801  1
  O  O26  1  0.574655  0.934325  0.204660  1
  O  O27  1  0.340608  0.613297  0.331019  1
  O  O28  1  0.733097  0.447211  0.958628  1
  O  O29  1  0.766903  0.552789  0.458628  1
  O  O30  1  0.278732  0.079424  0.499054  1
  O  O31  1  0.233097  0.447211  0.541372  1
  O  O32  1  0.425345  0.065675  0.795340  1
  O  O33  1  0.925345  0.065675  0.704660  1
  O  O34  1  0.778732  0.079424  0.000946  1
  O  O35  1  0.342889  0.730415  0.830801  1
  O  O36  1  0.840608  0.613297  0.168981  1
