# generated using pymatgen
data_CaH2C2O5
_symmetry_space_group_name_H-M   'P 1'
_cell_length_a   6.38031248
_cell_length_b   10.04742566
_cell_length_c   14.78365414
_cell_angle_alpha   90.00000000
_cell_angle_beta   90.00000000
_cell_angle_gamma   107.40534445
_symmetry_Int_Tables_number   1
_chemical_formula_structural   CaH2C2O5
_chemical_formula_sum   'Ca8 H16 C16 O40'
_cell_volume   904.32307899
_cell_formula_units_Z   8
loop_
 _symmetry_equiv_pos_site_id
 _symmetry_equiv_pos_as_xyz
  1  'x, y, z'
loop_
 _atom_site_type_symbol
 _atom_site_label
 _atom_site_symmetry_multiplicity
 _atom_site_fract_x
 _atom_site_fract_y
 _atom_site_fract_z
 _atom_site_occupancy
  Ca  Ca1  1  0.557129  0.564339  0.877183  1
  Ca  Ca2  1  0.590271  0.552839  0.376061  1
  Ca  Ca3  1  0.942871  0.935661  0.377183  1
  Ca  Ca4  1  0.057129  0.064339  0.622817  1
  Ca  Ca5  1  0.090271  0.052839  0.123939  1
  Ca  Ca6  1  0.442871  0.435661  0.122817  1
  Ca  Ca7  1  0.409729  0.447161  0.623939  1
  Ca  Ca8  1  0.909729  0.947161  0.876061  1
  H  H9  1  0.959628  0.437436  0.376902  1
  H  H10  1  0.937571  0.453084  0.866802  1
  H  H11  1  0.226826  0.710518  0.624446  1
  H  H12  1  0.437571  0.953084  0.633198  1
  H  H13  1  0.459628  0.937436  0.123098  1
  H  H14  1  0.773174  0.289482  0.375554  1
  H  H15  1  0.540372  0.062564  0.876902  1
  H  H16  1  0.296923  0.907321  0.721513  1
  H  H17  1  0.796923  0.407321  0.778487  1
  H  H18  1  0.062429  0.546916  0.133198  1
  H  H19  1  0.703077  0.092679  0.278487  1
  H  H20  1  0.040372  0.562564  0.623098  1
  H  H21  1  0.273174  0.789482  0.124446  1
  H  H22  1  0.203077  0.592679  0.221513  1
  H  H23  1  0.562429  0.046916  0.366802  1
  H  H24  1  0.726826  0.210518  0.875554  1
  C  C25  1  0.664508  0.182259  0.127749  1
  C  C26  1  0.250874  0.248917  0.426627  1
  C  C27  1  0.164508  0.682259  0.372251  1
  C  C28  1  0.335492  0.817741  0.872251  1
  C  C29  1  0.866750  0.312909  0.117401  1
  C  C30  1  0.835492  0.317741  0.627749  1
  C  C31  1  0.749126  0.751083  0.573373  1
  C  C32  1  0.366750  0.812909  0.382599  1
  C  C33  1  0.733381  0.755803  0.679508  1
  C  C34  1  0.750874  0.748917  0.073373  1
  C  C35  1  0.766619  0.744197  0.179507  1
  C  C36  1  0.266619  0.244197  0.320493  1
  C  C37  1  0.233381  0.255803  0.820492  1
  C  C38  1  0.633250  0.187091  0.617401  1
  C  C39  1  0.249126  0.251083  0.926627  1
  C  C40  1  0.133250  0.687091  0.882599  1
  O  O41  1  0.355406  0.362009  0.464980  1
  O  O42  1  0.196930  0.610714  0.609477  1
  O  O43  1  0.827315  0.428646  0.108309  1
  O  O44  1  0.212849  0.602132  0.155301  1
  O  O45  1  0.054154  0.294173  0.121645  1
  O  O46  1  0.133762  0.138935  0.465090  1
  O  O47  1  0.205065  0.568811  0.353458  1
  O  O48  1  0.445846  0.205827  0.621645  1
  O  O49  1  0.945846  0.705827  0.878355  1
  O  O50  1  0.787151  0.397868  0.844699  1
  O  O51  1  0.644594  0.637991  0.535020  1
  O  O52  1  0.118332  0.145733  0.781600  1
  O  O53  1  0.881668  0.854267  0.218400  1
  O  O54  1  0.672685  0.071354  0.608309  1
  O  O55  1  0.294935  0.931189  0.853458  1
  O  O56  1  0.618332  0.645733  0.718400  1
  O  O57  1  0.866238  0.861065  0.534910  1
  O  O58  1  0.855406  0.862009  0.035020  1
  O  O59  1  0.803070  0.389286  0.390523  1
  O  O60  1  0.366238  0.361065  0.965090  1
  O  O61  1  0.303070  0.889286  0.109477  1
  O  O62  1  0.794935  0.431189  0.646542  1
  O  O63  1  0.661940  0.630584  0.217584  1
  O  O64  1  0.144594  0.137991  0.964980  1
  O  O65  1  0.476576  0.198821  0.120587  1
  O  O66  1  0.172685  0.571353  0.891691  1
  O  O67  1  0.523424  0.801179  0.879413  1
  O  O68  1  0.633762  0.638935  0.034910  1
  O  O69  1  0.976576  0.698821  0.379413  1
  O  O70  1  0.696930  0.110714  0.890523  1
  O  O71  1  0.023424  0.301179  0.620587  1
  O  O72  1  0.381668  0.354267  0.281600  1
  O  O73  1  0.554154  0.794173  0.378355  1
  O  O74  1  0.287151  0.897868  0.655301  1
  O  O75  1  0.838060  0.869416  0.717584  1
  O  O76  1  0.705065  0.068811  0.146542  1
  O  O77  1  0.338060  0.369416  0.782416  1
  O  O78  1  0.712849  0.102132  0.344699  1
  O  O79  1  0.161940  0.130584  0.282416  1
  O  O80  1  0.327315  0.928647  0.391691  1
