# generated using pymatgen
data_Yb5Au3
_symmetry_space_group_name_H-M   'P 1'
_cell_length_a   7.75487560
_cell_length_b   7.75487608
_cell_length_c   9.05117616
_cell_angle_alpha   115.36545838
_cell_angle_beta   115.36546015
_cell_angle_gamma   89.99999994
_symmetry_Int_Tables_number   1
_chemical_formula_structural   Yb5Au3
_chemical_formula_sum   'Yb10 Au6'
_cell_volume   433.05588363
_cell_formula_units_Z   2
loop_
 _symmetry_equiv_pos_site_id
 _symmetry_equiv_pos_as_xyz
  1  'x, y, z'
loop_
 _atom_site_type_symbol
 _atom_site_label
 _atom_site_symmetry_multiplicity
 _atom_site_fract_x
 _atom_site_fract_y
 _atom_site_fract_z
 _atom_site_occupancy
  Yb  Yb1  1  0.025372  0.525372  0.713580  1
  Yb  Yb2  1  0.474628  0.311791  0.286420  1
  Yb  Yb3  1  0.974628  0.474628  0.286420  1
  Yb  Yb4  1  0.188209  0.025372  0.713580  1
  Yb  Yb5  1  0.688209  0.188209  0.713580  1
  Yb  Yb6  1  0.525372  0.688209  0.713580  1
  Yb  Yb7  1  0.500000  0.500000  0.000000  1
  Yb  Yb8  1  0.811791  0.974628  0.286420  1
  Yb  Yb9  1  0.311791  0.811791  0.286420  1
  Yb  Yb10  1  0.000000  0.000000  0.000000  1
  Au  Au11  1  0.867089  0.632911  1.000000  1
  Au  Au12  1  0.250000  0.250000  0.500000  1
  Au  Au13  1  0.132911  0.367089  0.000000  1
  Au  Au14  1  0.632911  0.132911  1.000000  1
  Au  Au15  1  0.367089  0.867089  0.000000  1
  Au  Au16  1  0.750000  0.750000  0.500000  1
