# generated using pymatgen
data_K3Co(CN)6
_symmetry_space_group_name_H-M   'P 1'
_cell_length_a   7.14759422
_cell_length_b   8.43398467
_cell_length_c   10.48832283
_cell_angle_alpha   90.00000000
_cell_angle_beta   90.00000000
_cell_angle_gamma   107.39479187
_symmetry_Int_Tables_number   1
_chemical_formula_structural   K3Co(CN)6
_chemical_formula_sum   'K6 Co2 C12 N12'
_cell_volume   603.34939151
_cell_formula_units_Z   2
loop_
 _symmetry_equiv_pos_site_id
 _symmetry_equiv_pos_as_xyz
  1  'x, y, z'
loop_
 _atom_site_type_symbol
 _atom_site_label
 _atom_site_symmetry_multiplicity
 _atom_site_fract_x
 _atom_site_fract_y
 _atom_site_fract_z
 _atom_site_occupancy
  C  C1  1  0.880721  0.974106  0.660916  1
  C  C2  1  0.880721  0.474106  0.839084  1
  C  C3  1  0.119279  0.025894  0.339084  1
  C  C4  1  0.119279  0.525894  0.160916  1
  C  C5  1  0.176202  0.387990  0.943530  1
  C  C6  1  0.823798  0.112010  0.443530  1
  C  C7  1  0.823798  0.612010  0.056470  1
  C  C8  1  0.176202  0.887990  0.556470  1
  C  C9  1  0.820620  0.797163  0.450382  1
  C  C10  1  0.179380  0.702837  0.950382  1
  C  C11  1  0.179380  0.202837  0.549618  1
  C  C12  1  0.820620  0.297163  0.049618  1
  N  N13  1  0.284229  0.815824  0.591553  1
  N  N14  1  0.715771  0.684176  0.091553  1
  N  N15  1  0.715771  0.184176  0.408447  1
  N  N16  1  0.284229  0.315824  0.908447  1
  N  N17  1  0.800889  0.454782  0.739648  1
  N  N18  1  0.800889  0.954782  0.760352  1
  N  N19  1  0.199111  0.545218  0.260352  1
  N  N20  1  0.199111  0.045218  0.239648  1
  N  N21  1  0.709475  0.668571  0.421503  1
  N  N22  1  0.290525  0.831429  0.921503  1
  N  N23  1  0.290525  0.331429  0.578497  1
  N  N24  1  0.709475  0.168571  0.078497  1
  K  K25  1  0.498206  0.875458  0.220207  1
  K  K26  1  0.501794  0.624542  0.720207  1
  K  K27  1  0.000000  0.500000  0.500000  1
  K  K28  1  0.000000  0.000000  0.000000  1
  K  K29  1  0.498206  0.375458  0.279793  1
  K  K30  1  0.501794  0.124542  0.779793  1
  Co  Co31  1  0.000000  0.000000  0.500000  1
  Co  Co32  1  0.000000  0.500000  0.000000  1
