# generated using pymatgen
data_BaP2(HO)4
_symmetry_space_group_name_H-M   'P 1'
_cell_length_a   8.63284986
_cell_length_b   8.63284986
_cell_length_c   6.29218366
_cell_angle_alpha   90.00000000
_cell_angle_beta   90.00000000
_cell_angle_gamma   43.10204816
_symmetry_Int_Tables_number   1
_chemical_formula_structural   BaP2(HO)4
_chemical_formula_sum   'Ba2 P4 H8 O8'
_cell_volume   320.42110029
_cell_formula_units_Z   2
loop_
 _symmetry_equiv_pos_site_id
 _symmetry_equiv_pos_as_xyz
  1  'x, y, z'
loop_
 _atom_site_type_symbol
 _atom_site_label
 _atom_site_symmetry_multiplicity
 _atom_site_fract_x
 _atom_site_fract_y
 _atom_site_fract_z
 _atom_site_occupancy
  Ba  Ba1  1  0.250000  0.250000  0.750000  1
  Ba  Ba2  1  0.750000  0.750000  0.250000  1
  P  P3  1  0.609948  0.609948  0.750000  1
  P  P4  1  0.109948  0.109948  0.250000  1
  P  P5  1  0.390052  0.390052  0.250000  1
  P  P6  1  0.890052  0.890052  0.750000  1
  H  H7  1  0.678112  0.432176  0.623726  1
  H  H8  1  0.932176  0.178112  0.123726  1
  H  H9  1  0.567824  0.321888  0.123726  1
  H  H10  1  0.821888  0.067824  0.623726  1
  H  H11  1  0.321888  0.567824  0.376274  1
  H  H12  1  0.067824  0.821888  0.876274  1
  H  H13  1  0.432176  0.678112  0.876274  1
  H  H14  1  0.178112  0.932176  0.376274  1
  O  O15  1  0.806065  0.512092  0.895904  1
  O  O16  1  0.012092  0.306065  0.395904  1
  O  O17  1  0.487908  0.193935  0.395904  1
  O  O18  1  0.693935  0.987908  0.895904  1
  O  O19  1  0.193935  0.487908  0.104096  1
  O  O20  1  0.987908  0.693935  0.604096  1
  O  O21  1  0.512092  0.806065  0.604096  1
  O  O22  1  0.306065  0.012092  0.104096  1
