# generated using pymatgen
data_Rb3LiZn2(MoO4)4
_symmetry_space_group_name_H-M   'P 1'
_cell_length_a   10.49608570
_cell_length_b   10.49609716
_cell_length_c   10.49608544
_cell_angle_alpha   109.30697537
_cell_angle_beta   109.30691144
_cell_angle_gamma   109.80023699
_symmetry_Int_Tables_number   1
_chemical_formula_structural   Rb3LiZn2(MoO4)4
_chemical_formula_sum   'Rb6 Li2 Zn4 Mo8 O32'
_cell_volume   890.12324373
_cell_formula_units_Z   2
loop_
 _symmetry_equiv_pos_site_id
 _symmetry_equiv_pos_as_xyz
  1  'x, y, z'
loop_
 _atom_site_type_symbol
 _atom_site_label
 _atom_site_symmetry_multiplicity
 _atom_site_fract_x
 _atom_site_fract_y
 _atom_site_fract_z
 _atom_site_occupancy
  Rb  Rb1  1  0.124999  0.875000  0.249999  1
  Rb  Rb2  1  0.374998  0.625000  0.749999  1
  Rb  Rb3  1  0.249996  0.126711  0.876711  1
  Rb  Rb4  1  0.626715  0.750000  0.376715  1
  Rb  Rb5  1  0.749999  0.373289  0.623285  1
  Rb  Rb6  1  0.873288  0.250000  0.123288  1
  Li  Li7  1  0.625000  0.375000  0.250000  1
  Li  Li8  1  0.875000  0.125000  0.750000  1
  Zn  Zn9  1  0.125362  0.750000  0.875362  1
  Zn  Zn10  1  0.250000  0.625361  0.375361  1
  Zn  Zn11  1  0.374639  0.250000  0.624639  1
  Zn  Zn12  1  0.750000  0.874639  0.124639  1
  Mo  Mo13  1  0.998889  0.714293  0.499724  1
  Mo  Mo14  1  0.999165  0.214568  0.500276  1
  Mo  Mo15  1  0.214293  0.498890  0.999725  1
  Mo  Mo16  1  0.285708  0.285432  0.284597  1
  Mo  Mo17  1  0.501111  0.000836  0.715403  1
  Mo  Mo18  1  0.785431  0.785707  0.784596  1
  Mo  Mo19  1  0.500835  0.001110  0.215403  1
  Mo  Mo20  1  0.714567  0.499164  0.000275  1
  O  O21  1  0.999224  0.881529  0.499165  1
  O  O22  1  0.132072  0.772654  0.699636  1
  O  O23  1  0.075375  0.303689  0.933561  1
  O  O24  1  0.139623  0.566520  0.866931  1
  O  O25  1  0.000059  0.382365  0.500835  1
  O  O26  1  0.066520  0.639623  0.366930  1
  O  O27  1  0.199590  0.272693  0.633070  1
  O  O28  1  0.300411  0.933480  0.073103  1
  O  O29  1  0.227345  0.426981  0.359418  1
  O  O30  1  0.433480  0.800410  0.573103  1
  O  O31  1  0.272654  0.632071  0.199636  1
  O  O32  1  0.118470  0.117635  0.117694  1
  O  O33  1  0.727307  0.860377  0.926897  1
  O  O34  1  0.367928  0.067564  0.640583  1
  O  O35  1  0.360377  0.227307  0.426897  1
  O  O36  1  0.573018  0.432436  0.800364  1
  O  O37  1  0.500777  0.999941  0.882306  1
  O  O38  1  0.617636  0.618471  0.617695  1
  O  O39  1  0.381529  0.499224  0.999165  1
  O  O40  1  0.424625  0.358186  0.228314  1
  O  O41  1  0.567565  0.867929  0.140583  1
  O  O42  1  0.858185  0.924624  0.728314  1
  O  O43  1  0.499940  0.000776  0.382305  1
  O  O44  1  0.696311  0.129872  0.771687  1
  O  O45  1  0.926982  0.727346  0.859418  1
  O  O46  1  0.803690  0.575376  0.433561  1
  O  O47  1  0.629872  0.196311  0.271686  1
  O  O48  1  0.641815  0.370128  0.066439  1
  O  O49  1  0.772693  0.699590  0.133070  1
  O  O50  1  0.870128  0.141814  0.566439  1
  O  O51  1  0.882365  0.500059  0.000836  1
  O  O52  1  0.932436  0.073019  0.300364  1
