# generated using pymatgen
data_Sr(AsO3)2
_symmetry_space_group_name_H-M   'P 1'
_cell_length_a   4.94746025
_cell_length_b   4.94683924
_cell_length_c   5.52334229
_cell_angle_alpha   89.99664152
_cell_angle_beta   90.00674585
_cell_angle_gamma   120.00408352
_symmetry_Int_Tables_number   1
_chemical_formula_structural   Sr(AsO3)2
_chemical_formula_sum   'Sr1 As2 O6'
_cell_volume   117.06439516
_cell_formula_units_Z   1
loop_
 _symmetry_equiv_pos_site_id
 _symmetry_equiv_pos_as_xyz
  1  'x, y, z'
loop_
 _atom_site_type_symbol
 _atom_site_label
 _atom_site_symmetry_multiplicity
 _atom_site_fract_x
 _atom_site_fract_y
 _atom_site_fract_z
 _atom_site_occupancy
  Sr  Sr1  1  0.000022  0.000001  -0.000006  1
  As  As2  1  0.333428  0.666856  0.500000  1
  As  As3  1  0.666571  0.333145  0.500001  1
  O  O4  1  0.999971  0.617490  0.691518  1
  O  O5  1  -0.000006  0.382515  0.308482  1
  O  O6  1  0.382481  0.382509  0.691517  1
  O  O7  1  0.617478  0.617484  0.308482  1
  O  O8  1  0.382520  1.000000  0.308533  1
  O  O9  1  0.617437  1.000000  0.691472  1
