# generated using pymatgen
data_Li2Fe(CoO3)2
_symmetry_space_group_name_H-M   'P 1'
_cell_length_a   4.98103350
_cell_length_b   4.97210151
_cell_length_c   10.00657876
_cell_angle_alpha   90.00000000
_cell_angle_beta   90.00000000
_cell_angle_gamma   60.05929695
_symmetry_Int_Tables_number   1
_chemical_formula_structural   Li2Fe(CoO3)2
_chemical_formula_sum   'Li4 Fe2 Co4 O12'
_cell_volume   214.75084754
_cell_formula_units_Z   2
loop_
 _symmetry_equiv_pos_site_id
 _symmetry_equiv_pos_as_xyz
  1  'x, y, z'
loop_
 _atom_site_type_symbol
 _atom_site_label
 _atom_site_symmetry_multiplicity
 _atom_site_fract_x
 _atom_site_fract_y
 _atom_site_fract_z
 _atom_site_occupancy
  Li  Li1  1  0.500000  0.164981  0.750000  1
  Li  Li2  1  0.500000  0.335019  0.250000  1
  Li  Li3  1  0.500000  0.664981  0.750000  1
  Li  Li4  1  0.500000  0.835019  0.250000  1
  Fe  Fe5  1  0.000000  0.000000  0.000000  1
  Fe  Fe6  1  0.000000  0.500000  0.500000  1
  Co  Co7  1  0.331154  0.334424  0.000000  1
  Co  Co8  1  0.331154  0.834424  0.500000  1
  Co  Co9  1  0.668846  0.165576  0.500000  1
  Co  Co10  1  0.668846  0.665576  0.000000  1
  O  O11  1  1.000000  0.166133  0.596819  1
  O  O12  1  0.000000  0.333867  0.096819  1
  O  O13  1  1.000000  0.666133  0.903181  1
  O  O14  1  0.351737  0.991958  0.895316  1
  O  O15  1  0.000000  0.833867  0.403181  1
  O  O16  1  0.351737  0.156304  0.395316  1
  O  O17  1  0.351737  0.491958  0.604684  1
  O  O18  1  0.351737  0.656304  0.104684  1
  O  O19  1  0.648263  0.008042  0.104684  1
  O  O20  1  0.648263  0.343696  0.895316  1
  O  O21  1  0.648263  0.508042  0.395316  1
  O  O22  1  0.648263  0.843696  0.604684  1
