# generated using pymatgen
data_CoTeO3
_symmetry_space_group_name_H-M   'P 1'
_cell_length_a   5.38537818
_cell_length_b   6.06814737
_cell_length_c   7.56407603
_cell_angle_alpha   90.00000000
_cell_angle_beta   90.00000000
_cell_angle_gamma   90.00000000
_symmetry_Int_Tables_number   1
_chemical_formula_structural   CoTeO3
_chemical_formula_sum   'Co4 Te4 O12'
_cell_volume   247.18847108
_cell_formula_units_Z   4
loop_
 _symmetry_equiv_pos_site_id
 _symmetry_equiv_pos_as_xyz
  1  'x, y, z'
loop_
 _atom_site_type_symbol
 _atom_site_label
 _atom_site_symmetry_multiplicity
 _atom_site_fract_x
 _atom_site_fract_y
 _atom_site_fract_z
 _atom_site_occupancy
  O  O1  1  0.863168  0.182637  0.435639  1
  O  O2  1  0.363168  0.317363  0.564361  1
  O  O3  1  0.636832  0.682637  0.064361  1
  O  O4  1  0.136832  0.817363  0.935639  1
  O  O5  1  0.136832  0.817363  0.564361  1
  O  O6  1  0.636832  0.682637  0.435639  1
  O  O7  1  0.363168  0.317363  0.935639  1
  O  O8  1  0.863168  0.182637  0.064361  1
  O  O9  1  0.339660  0.053151  0.250000  1
  O  O10  1  0.839660  0.446849  0.750000  1
  O  O11  1  0.160340  0.553151  0.250000  1
  O  O12  1  0.660340  0.946849  0.750000  1
  Co  Co13  1  0.500000  0.000000  0.000000  1
  Co  Co14  1  0.000000  0.500000  0.000000  1
  Co  Co15  1  0.000000  0.500000  0.500000  1
  Co  Co16  1  0.500000  0.000000  0.500000  1
  Te  Te17  1  0.987438  0.985594  0.250000  1
  Te  Te18  1  0.487438  0.514406  0.750000  1
  Te  Te19  1  0.512562  0.485594  0.250000  1
  Te  Te20  1  0.012562  0.014406  0.750000  1
