# generated using pymatgen
data_GdErO3
_symmetry_space_group_name_H-M   'P 1'
_cell_length_a   9.27883048
_cell_length_b   9.27723086
_cell_length_c   9.27723086
_cell_angle_alpha   109.46136590
_cell_angle_beta   109.47400490
_cell_angle_gamma   109.47130528
_symmetry_Int_Tables_number   1
_chemical_formula_structural   GdErO3
_chemical_formula_sum   'Gd8 Er8 O24'
_cell_volume   614.81649409
_cell_formula_units_Z   8
loop_
 _symmetry_equiv_pos_site_id
 _symmetry_equiv_pos_as_xyz
  1  'x, y, z'
loop_
 _atom_site_type_symbol
 _atom_site_label
 _atom_site_symmetry_multiplicity
 _atom_site_fract_x
 _atom_site_fract_y
 _atom_site_fract_z
 _atom_site_occupancy
  Gd  Gd1  1  0.497816  0.998798  0.998983  1
  Gd  Gd2  1  0.718839  0.468872  0.249223  1
  Gd  Gd3  1  0.781161  0.030384  0.750033  1
  Gd  Gd4  1  0.750000  0.780886  0.030886  1
  Gd  Gd5  1  0.750000  0.281715  0.531715  1
  Gd  Gd6  1  0.004374  0.501693  0.001690  1
  Gd  Gd7  1  0.002184  0.001166  0.500981  1
  Gd  Gd8  1  0.495626  0.497316  0.497319  1
  Er  Er9  1  0.970632  0.251083  0.218974  1
  Er  Er10  1  0.464892  0.248388  0.716016  1
  Er  Er11  1  0.529368  0.748343  0.280452  1
  Er  Er12  1  0.250000  0.717915  0.467915  1
  Er  Er13  1  0.250000  0.217228  0.967228  1
  Er  Er14  1  0.218556  0.967933  0.250066  1
  Er  Er15  1  0.281444  0.531510  0.749377  1
  Er  Er16  1  0.035108  0.751124  0.783496  1
  O  O17  1  0.754957  0.025054  0.484121  1
  O  O18  1  0.745043  0.229162  0.270096  1
  O  O19  1  0.269179  0.012897  0.043472  1
  O  O20  1  0.974787  0.512791  0.243559  1
  O  O21  1  0.464798  0.225393  0.456379  1
  O  O22  1  0.769221  0.730865  0.260722  1
  O  O23  1  0.453890  0.469340  0.224449  1
  O  O24  1  0.046110  0.270560  0.015450  1
  O  O25  1  0.726058  0.261371  0.773081  1
  O  O26  1  0.017651  0.046425  0.271626  1
  O  O27  1  0.482349  0.753975  0.028773  1
  O  O28  1  0.773942  0.547024  0.535313  1
  O  O29  1  0.274978  0.745480  0.233293  1
  O  O30  1  0.505980  0.238179  0.964186  1
  O  O31  1  0.225022  0.458315  0.470501  1
  O  O32  1  0.994020  0.958207  0.732198  1
  O  O33  1  0.537165  0.525684  0.769090  1
  O  O34  1  0.962835  0.731926  0.988519  1
  O  O35  1  0.525213  0.768772  0.538004  1
  O  O36  1  0.230821  0.274294  0.743718  1
  O  O37  1  0.035202  0.491581  0.760595  1
  O  O38  1  0.730779  0.991501  0.961645  1
  O  O39  1  0.243262  0.968761  0.511354  1
  O  O40  1  0.256738  0.768092  0.725499  1
