# generated using pymatgen
data_Li2SiNiO4
_symmetry_space_group_name_H-M   'P 1'
_cell_length_a   5.32534771
_cell_length_b   5.27452364
_cell_length_c   6.24375433
_cell_angle_alpha   90.20742109
_cell_angle_beta   90.21243452
_cell_angle_gamma   93.39869526
_symmetry_Int_Tables_number   1
_chemical_formula_structural   Li2SiNiO4
_chemical_formula_sum   'Li4 Si2 Ni2 O8'
_cell_volume   175.06781125
_cell_formula_units_Z   2
loop_
 _symmetry_equiv_pos_site_id
 _symmetry_equiv_pos_as_xyz
  1  'x, y, z'
loop_
 _atom_site_type_symbol
 _atom_site_label
 _atom_site_symmetry_multiplicity
 _atom_site_fract_x
 _atom_site_fract_y
 _atom_site_fract_z
 _atom_site_occupancy
  Li  Li1  1  0.182665  0.186729  0.750120  1
  Li  Li2  1  0.313927  0.689392  0.500562  1
  Li  Li3  1  0.685608  0.311040  0.000219  1
  Li  Li4  1  0.817696  0.812874  0.246578  1
  Si  Si5  1  0.170302  0.181446  0.250258  1
  Si  Si6  1  0.829060  0.819128  0.747138  1
  Ni  Ni7  1  0.325686  0.682660  0.005519  1
  Ni  Ni8  1  0.674385  0.318186  0.505752  1
  O  O9  1  0.135302  0.786585  0.754702  1
  O  O10  1  0.196470  0.869940  0.249119  1
  O  O11  1  0.304683  0.305600  0.031905  1
  O  O12  1  0.303938  0.312792  0.465783  1
  O  O13  1  0.694933  0.686075  0.961233  1
  O  O14  1  0.695504  0.696072  0.527440  1
  O  O15  1  0.802709  0.130028  0.748876  1
  O  O16  1  0.864337  0.214252  0.254800  1
