# generated using pymatgen
data_Li8Mn3V(PO4)6
_symmetry_space_group_name_H-M   'P 1'
_cell_length_a   9.26895098
_cell_length_b   8.50505409
_cell_length_c   8.39469117
_cell_angle_alpha   60.96080415
_cell_angle_beta   63.60306313
_cell_angle_gamma   91.53629359
_symmetry_Int_Tables_number   1
_chemical_formula_structural   Li8Mn3V(PO4)6
_chemical_formula_sum   'Li8 Mn3 V1 P6 O24'
_cell_volume   492.76078532
_cell_formula_units_Z   1
loop_
 _symmetry_equiv_pos_site_id
 _symmetry_equiv_pos_as_xyz
  1  'x, y, z'
loop_
 _atom_site_type_symbol
 _atom_site_label
 _atom_site_symmetry_multiplicity
 _atom_site_fract_x
 _atom_site_fract_y
 _atom_site_fract_z
 _atom_site_occupancy
  Li  Li1  1  0.864422  0.270843  0.803391  1
  Li  Li2  1  0.900476  0.939013  0.373288  1
  Li  Li3  1  0.850000  0.657759  0.069218  1
  Li  Li4  1  0.588156  0.798477  0.678420  1
  Li  Li5  1  0.409319  0.213516  0.328722  1
  Li  Li6  1  0.145999  0.334361  0.933290  1
  Li  Li7  1  0.100465  0.063144  0.628794  1
  Li  Li8  1  0.136050  0.733711  0.190960  1
  Mn  Mn9  1  0.968176  0.649124  0.687163  1
  Mn  Mn10  1  0.437802  0.150445  0.710650  1
  Mn  Mn11  1  0.033778  0.350744  0.311824  1
  V  V12  1  0.559306  0.850797  0.292174  1
  P  P13  1  0.746088  0.947862  0.797016  1
  P  P14  1  0.753093  0.553850  0.499895  1
  P  P15  1  0.758882  0.245566  0.196082  1
  P  P16  1  0.242057  0.747333  0.795891  1
  P  P17  1  0.250526  0.458907  0.492139  1
  P  P18  1  0.251398  0.044297  0.215529  1
  O  O19  1  0.890311  0.139145  0.661367  1
  O  O20  1  0.816018  0.512457  0.659353  1
  O  O21  1  0.807567  0.831608  0.693988  1
  O  O22  1  0.899222  0.573684  0.296264  1
  O  O23  1  0.900311  0.198926  0.248251  1
  O  O24  1  0.719170  0.751383  0.428318  1
  O  O25  1  0.582247  0.969206  0.799469  1
  O  O26  1  0.594559  0.395239  0.617661  1
  O  O27  1  0.818741  0.459921  0.015819  1
  O  O28  1  0.734701  0.119648  0.116519  1
  O  O29  1  0.590103  0.202314  0.387578  1
  O  O30  1  0.721634  0.843202  0.024454  1
  O  O31  1  0.263559  0.147562  0.998667  1
  O  O32  1  0.414292  0.808148  0.593390  1
  O  O33  1  0.253091  0.870236  0.879648  1
  O  O34  1  0.190116  0.535968  0.964958  1
  O  O35  1  0.412602  0.609853  0.398163  1
  O  O36  1  0.417918  0.011434  0.200652  1
  O  O37  1  0.279796  0.262181  0.562030  1
  O  O38  1  0.095517  0.788902  0.743558  1
  O  O39  1  0.102139  0.438373  0.697778  1
  O  O40  1  0.200678  0.157836  0.320733  1
  O  O41  1  0.196748  0.512950  0.328431  1
  O  O42  1  0.102969  0.850071  0.358507  1
