# generated using pymatgen
data_NaLi3Fe4(SiO3)8
_symmetry_space_group_name_H-M   'P 1'
_cell_length_a   6.60397785
_cell_length_b   25.59012459
_cell_length_c   5.36615771
_cell_angle_alpha   92.86504233
_cell_angle_beta   104.58272399
_cell_angle_gamma   86.41718853
_symmetry_Int_Tables_number   1
_chemical_formula_structural   NaLi3Fe4(SiO3)8
_chemical_formula_sum   'Na2 Li6 Fe8 Si16 O48'
_cell_volume   875.38184201
_cell_formula_units_Z   2
loop_
 _symmetry_equiv_pos_site_id
 _symmetry_equiv_pos_as_xyz
  1  'x, y, z'
loop_
 _atom_site_type_symbol
 _atom_site_label
 _atom_site_symmetry_multiplicity
 _atom_site_fract_x
 _atom_site_fract_y
 _atom_site_fract_z
 _atom_site_occupancy
  Na  Na1  1  0.290916  0.427611  0.822458  1
  Na  Na2  1  0.291137  0.177059  0.072637  1
  Li  Li3  1  0.259981  0.934536  0.314781  1
  Li  Li4  1  0.740413  0.814689  0.934864  1
  Li  Li5  1  0.739049  0.565120  0.185102  1
  Li  Li6  1  0.260232  0.684739  0.564649  1
  Li  Li7  1  0.738864  0.315503  0.434916  1
  Li  Li8  1  0.740237  0.065075  0.684653  1
  Fe  Fe9  1  0.897300  0.775462  0.474306  1
  Fe  Fe10  1  0.102506  0.973736  0.774102  1
  Fe  Fe11  1  0.102653  0.724406  0.025308  1
  Fe  Fe12  1  0.896862  0.526229  0.726229  1
  Fe  Fe13  1  0.101024  0.475445  0.276641  1
  Fe  Fe14  1  0.896757  0.275963  0.974269  1
  Fe  Fe15  1  0.897192  0.025208  0.222246  1
  Fe  Fe16  1  0.100789  0.224785  0.525384  1
  Si  Si17  1  0.794774  0.903705  0.332996  1
  Si  Si18  1  0.615502  0.948669  0.788276  1
  Si  Si19  1  0.615276  0.699012  0.038354  1
  Si  Si20  1  0.384231  0.801235  0.461618  1
  Si  Si21  1  0.794019  0.654223  0.582996  1
  Si  Si22  1  0.205148  0.845912  0.916658  1
  Si  Si23  1  0.205374  0.596714  0.165886  1
  Si  Si24  1  0.617708  0.449469  0.299316  1
  Si  Si25  1  0.382481  0.552384  0.708738  1
  Si  Si26  1  0.794622  0.404645  0.841489  1
  Si  Si27  1  0.795336  0.154127  0.091457  1
  Si  Si28  1  0.202463  0.345777  0.405984  1
  Si  Si29  1  0.617901  0.199140  0.549272  1
  Si  Si30  1  0.382370  0.301375  0.953065  1
  Si  Si31  1  0.384135  0.050328  0.205931  1
  Si  Si32  1  0.202095  0.094990  0.656680  1
  O  O33  1  0.971245  0.948947  0.400898  1
  O  O34  1  0.796113  0.992926  0.857406  1
  O  O35  1  0.647558  0.911575  0.038209  1
  O  O36  1  0.889185  0.843852  0.330071  1
  O  O37  1  0.645970  0.912030  0.537507  1
  O  O38  1  0.375743  0.972325  0.701525  1
  O  O39  1  0.796326  0.743110  0.108131  1
  O  O40  1  0.351988  0.838649  0.212127  1
  O  O41  1  0.970810  0.699453  0.651189  1
  O  O42  1  0.624306  0.777870  0.548474  1
  O  O43  1  0.353958  0.838154  0.712185  1
  O  O44  1  0.110801  0.905958  0.919705  1
  O  O45  1  0.647097  0.661929  0.288099  1
  O  O46  1  0.887274  0.594328  0.579626  1
  O  O47  1  0.203287  0.757213  0.392037  1
  O  O48  1  0.645578  0.662340  0.787770  1
  O  O49  1  0.375369  0.722588  0.951537  1
  O  O50  1  0.028402  0.800890  0.848101  1
  O  O51  1  0.798886  0.493047  0.361651  1
  O  O52  1  0.109191  0.656539  0.168563  1
  O  O53  1  0.353717  0.590141  0.461137  1
  O  O54  1  0.963443  0.451191  0.905069  1
  O  O55  1  0.621116  0.527960  0.796722  1
  O  O56  1  0.353884  0.588958  0.961253  1
  O  O57  1  0.645940  0.411883  0.048044  1
  O  O58  1  0.380417  0.474539  0.222264  1
  O  O59  1  0.028722  0.551597  0.098672  1
  O  O60  1  0.645790  0.411567  0.546081  1
  O  O61  1  0.889355  0.344764  0.834099  1
  O  O62  1  0.196927  0.509753  0.637042  1
  O  O63  1  0.963860  0.200670  0.154723  1
  O  O64  1  0.621215  0.277494  0.043810  1
  O  O65  1  0.353475  0.338503  0.203839  1
  O  O66  1  0.798625  0.242870  0.610899  1
  O  O67  1  0.101830  0.405018  0.398455  1
  O  O68  1  0.352419  0.338464  0.701689  1
  O  O69  1  0.891193  0.094281  0.084427  1
  O  O70  1  0.646363  0.161567  0.297853  1
  O  O71  1  0.380719  0.224256  0.472261  1
  O  O72  1  0.028009  0.300325  0.345933  1
  O  O73  1  0.646188  0.161196  0.796149  1
  O  O74  1  0.196328  0.259055  0.885429  1
  O  O75  1  0.624336  0.027476  0.295444  1
  O  O76  1  0.353494  0.087731  0.454813  1
  O  O77  1  0.103062  0.154422  0.649322  1
  O  O78  1  0.350547  0.087168  0.952931  1
  O  O79  1  0.202812  0.006585  0.140299  1
  O  O80  1  0.027780  0.049570  0.595269  1
