# generated using pymatgen
data_V6O5F19
_symmetry_space_group_name_H-M   'P 1'
_cell_length_a   5.61174548
_cell_length_b   5.37689433
_cell_length_c   14.80702398
_cell_angle_alpha   89.63201717
_cell_angle_beta   100.36633385
_cell_angle_gamma   93.10652259
_symmetry_Int_Tables_number   1
_chemical_formula_structural   V6O5F19
_chemical_formula_sum   'V6 O5 F19'
_cell_volume   438.84259136
_cell_formula_units_Z   1
loop_
 _symmetry_equiv_pos_site_id
 _symmetry_equiv_pos_as_xyz
  1  'x, y, z'
loop_
 _atom_site_type_symbol
 _atom_site_label
 _atom_site_symmetry_multiplicity
 _atom_site_fract_x
 _atom_site_fract_y
 _atom_site_fract_z
 _atom_site_occupancy
  V  V1  1  0.044508  0.965303  0.003757  1
  V  V2  1  0.181229  0.487905  0.331744  1
  V  V3  1  0.265937  0.031194  0.663185  1
  V  V4  1  0.533394  0.457035  0.996278  1
  V  V5  1  0.722633  0.961287  0.337386  1
  V  V6  1  0.775638  0.483755  0.665243  1
  O  O7  1  0.030281  0.205511  0.641503  1
  O  O8  1  0.530610  0.293540  0.643554  1
  O  O9  1  0.696517  0.229796  0.978905  1
  O  O10  1  0.275774  0.794016  0.021477  1
  O  O11  1  0.960539  0.792033  0.357467  1
  F  F12  1  0.214845  0.274871  0.973677  1
  F  F13  1  0.137156  0.728267  0.691456  1
  F  F14  1  0.038887  0.095799  0.113006  1
  F  F15  1  0.199432  0.437014  0.450876  1
  F  F16  1  0.395226  0.088196  0.779667  1
  F  F17  1  0.110252  0.602754  0.218430  1
  F  F18  1  0.311282  0.925671  0.554669  1
  F  F19  1  0.453988  0.593988  0.886576  1
  F  F20  1  0.344960  0.219434  0.307675  1
  F  F21  1  0.482795  0.703531  0.356816  1
  F  F22  1  0.650441  0.765968  0.692986  1
  F  F23  1  0.523251  0.439755  0.115050  1
  F  F24  1  0.695877  0.087416  0.444661  1
  F  F25  1  0.904579  0.411208  0.779478  1
  F  F26  1  0.607457  0.929673  0.219235  1
  F  F27  1  0.815808  0.574931  0.553711  1
  F  F28  1  0.927960  0.930252  0.885053  1
  F  F29  1  0.873781  0.274709  0.309902  1
  F  F30  1  0.794961  0.715190  0.026579  1
