# generated using pymatgen
data_Na2P2PdO7
_symmetry_space_group_name_H-M   'P 1'
_cell_length_a   5.99067747
_cell_length_b   8.01374779
_cell_length_c   8.05775234
_cell_angle_alpha   112.36594511
_cell_angle_beta   90.00000000
_cell_angle_gamma   111.94862181
_symmetry_Int_Tables_number   1
_chemical_formula_structural   Na2P2PdO7
_chemical_formula_sum   'Na4 P4 Pd2 O14'
_cell_volume   327.21196729
_cell_formula_units_Z   2
loop_
 _symmetry_equiv_pos_site_id
 _symmetry_equiv_pos_as_xyz
  1  'x, y, z'
loop_
 _atom_site_type_symbol
 _atom_site_label
 _atom_site_symmetry_multiplicity
 _atom_site_fract_x
 _atom_site_fract_y
 _atom_site_fract_z
 _atom_site_occupancy
  O  O1  1  0.887032  0.213575  0.011601  1
  O  O2  1  0.673457  0.786425  0.488399  1
  O  O3  1  0.112968  0.786425  0.988399  1
  O  O4  1  0.326543  0.213575  0.511601  1
  O  O5  1  0.064814  0.773674  0.303132  1
  O  O6  1  0.291140  0.226326  0.196868  1
  O  O7  1  0.935186  0.226326  0.696868  1
  O  O8  1  0.708860  0.773674  0.803132  1
  O  O9  1  0.467667  0.000000  0.250000  1
  O  O10  1  0.532333  0.000000  0.750000  1
  O  O11  1  0.299033  0.626771  0.606414  1
  O  O12  1  0.672262  0.373229  0.893586  1
  O  O13  1  0.700967  0.373229  0.393586  1
  O  O14  1  0.327738  0.626771  0.106414  1
  Na  Na15  1  0.089328  0.453534  0.302697  1
  Na  Na16  1  0.635793  0.546466  0.197303  1
  Na  Na17  1  0.910672  0.546466  0.697303  1
  Na  Na18  1  0.364207  0.453534  0.802697  1
  P  P19  1  0.447616  0.211629  0.341478  1
  P  P20  1  0.235987  0.788371  0.158522  1
  P  P21  1  0.552384  0.788371  0.658522  1
  P  P22  1  0.764013  0.211629  0.841478  1
  Pd  Pd23  1  0.000000  0.000000  0.500000  1
  Pd  Pd24  1  0.000000  0.000000  0.000000  1
