# generated using pymatgen
data_Ba3BPO3
_symmetry_space_group_name_H-M   'P 1'
_cell_length_a   5.57506735
_cell_length_b   5.57506734
_cell_length_c   13.70875981
_cell_angle_alpha   90.00000000
_cell_angle_beta   90.00000000
_cell_angle_gamma   119.99999997
_symmetry_Int_Tables_number   1
_chemical_formula_structural   Ba3BPO3
_chemical_formula_sum   'Ba6 B2 P2 O6'
_cell_volume   369.00226781
_cell_formula_units_Z   2
loop_
 _symmetry_equiv_pos_site_id
 _symmetry_equiv_pos_as_xyz
  1  'x, y, z'
loop_
 _atom_site_type_symbol
 _atom_site_label
 _atom_site_symmetry_multiplicity
 _atom_site_fract_x
 _atom_site_fract_y
 _atom_site_fract_z
 _atom_site_occupancy
  B  B1  1  0.666667  0.333333  0.250000  1
  B  B2  1  0.333333  0.666667  0.750000  1
  O  O3  1  0.478151  0.956301  0.750000  1
  O  O4  1  0.521849  0.478151  0.250000  1
  O  O5  1  0.521849  0.043699  0.250000  1
  O  O6  1  0.043699  0.521849  0.750000  1
  O  O7  1  0.478151  0.521849  0.750000  1
  O  O8  1  0.956301  0.478151  0.250000  1
  P  P9  1  0.000000  0.000000  0.000000  1
  P  P10  1  0.000000  0.000000  0.500000  1
  Ba  Ba11  1  0.333333  0.666667  0.401835  1
  Ba  Ba12  1  0.000000  0.000000  0.250000  1
  Ba  Ba13  1  0.000000  0.000000  0.750000  1
  Ba  Ba14  1  0.666667  0.333333  0.901835  1
  Ba  Ba15  1  0.666667  0.333333  0.598165  1
  Ba  Ba16  1  0.333333  0.666667  0.098165  1
