# generated using pymatgen
data_Rb3Mg
_symmetry_space_group_name_H-M   'P 1'
_cell_length_a   5.03518371
_cell_length_b   8.55258885
_cell_length_c   7.42247000
_cell_angle_alpha   64.28270841
_cell_angle_beta   90.00000000
_cell_angle_gamma   72.88046920
_symmetry_Int_Tables_number   1
_chemical_formula_structural   Rb3Mg
_chemical_formula_sum   'Rb3 Mg1'
_cell_volume   272.17365481
_cell_formula_units_Z   1
loop_
 _symmetry_equiv_pos_site_id
 _symmetry_equiv_pos_as_xyz
  1  'x, y, z'
loop_
 _atom_site_type_symbol
 _atom_site_label
 _atom_site_symmetry_multiplicity
 _atom_site_fract_x
 _atom_site_fract_y
 _atom_site_fract_z
 _atom_site_occupancy
  Rb  Rb1  1  0.458631  0.082735  0.407780  1
  Rb  Rb2  1  0.250001  0.500000  0.659616  1
  Rb  Rb3  1  0.041368  0.917264  0.990517  1
  Mg  Mg4  1  0.749999  0.500000  0.108755  1
