# generated using pymatgen
data_Dy2AlCo2
_symmetry_space_group_name_H-M   'P 1'
_cell_length_a   4.01797239
_cell_length_b   5.39228884
_cell_length_c   5.39228885
_cell_angle_alpha   60.95235571
_cell_angle_beta   68.12601253
_cell_angle_gamma   68.12601253
_symmetry_Int_Tables_number   1
_chemical_formula_structural   Dy2AlCo2
_chemical_formula_sum   'Dy2 Al1 Co2'
_cell_volume   92.09805014
_cell_formula_units_Z   1
loop_
 _symmetry_equiv_pos_site_id
 _symmetry_equiv_pos_as_xyz
  1  'x, y, z'
loop_
 _atom_site_type_symbol
 _atom_site_label
 _atom_site_symmetry_multiplicity
 _atom_site_fract_x
 _atom_site_fract_y
 _atom_site_fract_z
 _atom_site_occupancy
  Al  Al0  1  0.000000  0.000000  0.000000  1
  Co  Co1  1  0.500000  0.276973  0.723027  1
  Co  Co2  1  0.500000  0.723027  0.276973  1
  Dy  Dy3  1  0.203524  0.296476  0.296476  1
  Dy  Dy4  1  0.796476  0.703524  0.703524  1
