# generated using pymatgen
data_Cs2Se
_symmetry_space_group_name_H-M   'P 1'
_cell_length_a   5.99366761
_cell_length_b   5.99366754
_cell_length_c   6.03426586
_cell_angle_alpha   60.22231077
_cell_angle_beta   60.22231441
_cell_angle_gamma   60.00000038
_symmetry_Int_Tables_number   1
_chemical_formula_structural   Cs2Se
_chemical_formula_sum   'Cs2 Se1'
_cell_volume   153.79631992
_cell_formula_units_Z   1
loop_
 _symmetry_equiv_pos_site_id
 _symmetry_equiv_pos_as_xyz
  1  'x, y, z'
loop_
 _atom_site_type_symbol
 _atom_site_label
 _atom_site_symmetry_multiplicity
 _atom_site_fract_x
 _atom_site_fract_y
 _atom_site_fract_z
 _atom_site_occupancy
  Cs  Cs0  1  0.251191  0.251191  0.246427  1
  Cs  Cs1  1  0.748809  0.748809  0.753573  1
  Se  Se2  1  0.000000  0.000000  0.000000  1
