# generated using pymatgen
data_TiSiRu
_symmetry_space_group_name_H-M   'P 1'
_cell_length_a   6.49345472
_cell_length_b   7.09537217
_cell_length_c   7.38740654
_cell_angle_alpha   118.70070629
_cell_angle_beta   116.07165696
_cell_angle_gamma   90.00000002
_symmetry_Int_Tables_number   1
_chemical_formula_structural   TiSiRu
_chemical_formula_sum   'Ti6 Si6 Ru6'
_cell_volume   258.36690354
_cell_formula_units_Z   6
loop_
 _symmetry_equiv_pos_site_id
 _symmetry_equiv_pos_as_xyz
  1  'x, y, z'
loop_
 _atom_site_type_symbol
 _atom_site_label
 _atom_site_symmetry_multiplicity
 _atom_site_fract_x
 _atom_site_fract_y
 _atom_site_fract_z
 _atom_site_occupancy
  Si  Si0  1  0.536917  0.780731  0.061462  1
  Si  Si1  1  0.162364  0.174359  0.335103  1
  Si  Si2  1  0.162364  0.660744  0.335103  1
  Si  Si3  1  0.827261  0.339256  0.664897  1
  Si  Si4  1  0.475455  0.219269  0.938538  1
  Si  Si5  1  0.827261  0.825641  0.664897  1
  Ti  Ti6  1  0.912323  0.245606  0.991211  1
  Ti  Ti7  1  0.493164  0.972857  0.445715  1
  Ti  Ti8  1  0.047450  0.027143  0.554285  1
  Ti  Ti9  1  0.490939  0.444978  0.389957  1
  Ti  Ti10  1  0.921112  0.754394  0.008789  1
  Ti  Ti11  1  0.100983  0.555022  0.610043  1
  Ru  Ru12  1  0.245443  0.500000  0.000000  1
  Ru  Ru13  1  0.245443  0.000000  0.000000  1
  Ru  Ru14  1  0.496992  0.838621  0.747123  1
  Ru  Ru15  1  0.749869  0.591497  0.252877  1
  Ru  Ru16  1  0.496992  0.408503  0.747123  1
  Ru  Ru17  1  0.749869  0.161379  0.252877  1
