# generated using pymatgen
data_Sc(VGa2)2
_symmetry_space_group_name_H-M   'P 1'
_cell_length_a   5.20492246
_cell_length_b   5.28409980
_cell_length_c   5.28409980
_cell_angle_alpha   75.96207517
_cell_angle_beta   60.49444355
_cell_angle_gamma   60.49444355
_symmetry_Int_Tables_number   1
_chemical_formula_structural   Sc(VGa2)2
_chemical_formula_sum   'Sc1 V2 Ga4'
_cell_volume   110.07841699
_cell_formula_units_Z   1
loop_
 _symmetry_equiv_pos_site_id
 _symmetry_equiv_pos_as_xyz
  1  'x, y, z'
loop_
 _atom_site_type_symbol
 _atom_site_label
 _atom_site_symmetry_multiplicity
 _atom_site_fract_x
 _atom_site_fract_y
 _atom_site_fract_z
 _atom_site_occupancy
  Sc  Sc0  1  0.000000  0.000000  0.000000  1
  V  V1  1  0.250000  0.500000  0.500000  1
  V  V2  1  0.750000  0.500000  0.500000  1
  Ga  Ga3  1  0.300251  0.000000  0.399499  1
  Ga  Ga4  1  0.699749  0.000000  0.600501  1
  Ga  Ga5  1  0.699749  0.600501  0.000000  1
  Ga  Ga6  1  0.300251  0.399499  0.000000  1
