# generated using pymatgen
data_Cr2O3
_symmetry_space_group_name_H-M   'P 1'
_cell_length_a   5.03128151
_cell_length_b   5.03128109
_cell_length_c   5.47257321
_cell_angle_alpha   62.63344861
_cell_angle_beta   117.36655124
_cell_angle_gamma   119.99999495
_symmetry_Int_Tables_number   1
_chemical_formula_structural   Cr2O3
_chemical_formula_sum   'Cr4 O6'
_cell_volume   101.67623679
_cell_formula_units_Z   2
loop_
 _symmetry_equiv_pos_site_id
 _symmetry_equiv_pos_as_xyz
  1  'x, y, z'
loop_
 _atom_site_type_symbol
 _atom_site_label
 _atom_site_symmetry_multiplicity
 _atom_site_fract_x
 _atom_site_fract_y
 _atom_site_fract_z
 _atom_site_occupancy
  Cr  Cr0  1  0.651696  0.348304  0.955088  1
  Cr  Cr1  1  0.848304  0.151696  0.544912  1
  Cr  Cr2  1  0.348298  0.651702  0.044893  1
  Cr  Cr3  1  0.151702  0.848298  0.455107  1
  O  O4  1  0.553125  0.750000  0.750000  1
  O  O5  1  0.750000  0.946875  0.250000  1
  O  O6  1  0.446875  0.250000  0.250000  1
  O  O7  1  0.053125  0.553125  0.250000  1
  O  O8  1  0.250000  0.053125  0.750000  1
  O  O9  1  0.946875  0.446875  0.750000  1
