# generated using pymatgen
data_DyAu
_symmetry_space_group_name_H-M   'P 1'
_cell_length_a   3.75719346
_cell_length_b   4.67704247
_cell_length_c   5.80923960
_cell_angle_alpha   90.00000000
_cell_angle_beta   71.13249305
_cell_angle_gamma   90.00000000
_symmetry_Int_Tables_number   1
_chemical_formula_structural   DyAu
_chemical_formula_sum   'Dy2 Au2'
_cell_volume   96.59813221
_cell_formula_units_Z   2
loop_
 _symmetry_equiv_pos_site_id
 _symmetry_equiv_pos_as_xyz
  1  'x, y, z'
loop_
 _atom_site_type_symbol
 _atom_site_label
 _atom_site_symmetry_multiplicity
 _atom_site_fract_x
 _atom_site_fract_y
 _atom_site_fract_z
 _atom_site_occupancy
  Dy  Dy0  1  0.138982  0.750000  0.722035  1
  Dy  Dy1  1  0.861018  0.250000  0.277965  1
  Au  Au2  1  0.411451  0.750000  0.177098  1
  Au  Au3  1  0.588549  0.250000  0.822902  1
