# generated using pymatgen
data_CeSe2
_symmetry_space_group_name_H-M   'P 1'
_cell_length_a   4.20079832
_cell_length_b   8.38955212
_cell_length_c   8.33865038
_cell_angle_alpha   90.03302788
_cell_angle_beta   90.00000000
_cell_angle_gamma   90.00000000
_symmetry_Int_Tables_number   1
_chemical_formula_structural   CeSe2
_chemical_formula_sum   'Ce4 Se8'
_cell_volume   293.87747597
_cell_formula_units_Z   4
loop_
 _symmetry_equiv_pos_site_id
 _symmetry_equiv_pos_as_xyz
  1  'x, y, z'
loop_
 _atom_site_type_symbol
 _atom_site_label
 _atom_site_symmetry_multiplicity
 _atom_site_fract_x
 _atom_site_fract_y
 _atom_site_fract_z
 _atom_site_occupancy
  Se  Se0  1  0.260301  0.375137  0.999951  1
  Se  Se1  1  0.760301  0.124863  0.000049  1
  Se  Se2  1  0.739699  0.624863  0.000049  1
  Se  Se3  1  0.239699  0.875137  0.999951  1
  Se  Se4  1  0.250526  0.124920  0.635553  1
  Se  Se5  1  0.750526  0.375080  0.364447  1
  Se  Se6  1  0.749474  0.875080  0.364447  1
  Se  Se7  1  0.249474  0.624920  0.635553  1
  Ce  Ce8  1  0.245270  0.625181  0.270215  1
  Ce  Ce9  1  0.745270  0.874819  0.729785  1
  Ce  Ce10  1  0.754730  0.374819  0.729785  1
  Ce  Ce11  1  0.254730  0.125181  0.270215  1
