# generated using pymatgen
data_TiFeO3
_symmetry_space_group_name_H-M   'P 1'
_cell_length_a   5.56995816
_cell_length_b   5.56995816
_cell_length_c   5.56995816
_cell_angle_alpha   55.31606694
_cell_angle_beta   55.31606686
_cell_angle_gamma   55.31606689
_symmetry_Int_Tables_number   1
_chemical_formula_structural   TiFeO3
_chemical_formula_sum   'Ti2 Fe2 O6'
_cell_volume   108.89239023
_cell_formula_units_Z   2
loop_
 _symmetry_equiv_pos_site_id
 _symmetry_equiv_pos_as_xyz
  1  'x, y, z'
loop_
 _atom_site_type_symbol
 _atom_site_label
 _atom_site_symmetry_multiplicity
 _atom_site_fract_x
 _atom_site_fract_y
 _atom_site_fract_z
 _atom_site_occupancy
  O  O0  1  0.066584  0.719138  0.451229  1
  O  O1  1  0.719138  0.451229  0.066584  1
  O  O2  1  0.451229  0.066584  0.719138  1
  O  O3  1  0.933416  0.280862  0.548771  1
  O  O4  1  0.548771  0.933416  0.280862  1
  O  O5  1  0.280862  0.548771  0.933416  1
  Ti  Ti6  1  0.646230  0.646230  0.646230  1
  Ti  Ti7  1  0.353770  0.353770  0.353770  1
  Fe  Fe8  1  0.855399  0.855399  0.855399  1
  Fe  Fe9  1  0.144601  0.144601  0.144601  1
