# generated using pymatgen
data_Er2Al3Si2
_symmetry_space_group_name_H-M   'P 1'
_cell_length_a   4.02423015
_cell_length_b   5.43431304
_cell_length_c   6.58750133
_cell_angle_alpha   99.91457547
_cell_angle_beta   90.00000000
_cell_angle_gamma   111.73172484
_symmetry_Int_Tables_number   1
_chemical_formula_structural   Er2Al3Si2
_chemical_formula_sum   'Er2 Al3 Si2'
_cell_volume   131.50390819
_cell_formula_units_Z   1
loop_
 _symmetry_equiv_pos_site_id
 _symmetry_equiv_pos_as_xyz
  1  'x, y, z'
loop_
 _atom_site_type_symbol
 _atom_site_label
 _atom_site_symmetry_multiplicity
 _atom_site_fract_x
 _atom_site_fract_y
 _atom_site_fract_z
 _atom_site_occupancy
  Al  Al0  1  0.694720  0.389439  0.866697  1
  Al  Al1  1  0.000000  0.000000  0.000000  1
  Al  Al2  1  0.305280  0.610561  0.133303  1
  Si  Si3  1  0.906318  0.812636  0.360678  1
  Si  Si4  1  0.093682  0.187364  0.639322  1
  Er  Er5  1  0.380677  0.761354  0.677561  1
  Er  Er6  1  0.619323  0.238646  0.322439  1
