# generated using pymatgen
data_Ca2Mg
_symmetry_space_group_name_H-M   'P 1'
_cell_length_a   3.75502342
_cell_length_b   3.75502376
_cell_length_c   17.92340655
_cell_angle_alpha   90.00000000
_cell_angle_beta   90.00000000
_cell_angle_gamma   120.00000735
_symmetry_Int_Tables_number   1
_chemical_formula_structural   Ca2Mg
_chemical_formula_sum   'Ca4 Mg2'
_cell_volume   218.86508969
_cell_formula_units_Z   2
loop_
 _symmetry_equiv_pos_site_id
 _symmetry_equiv_pos_as_xyz
  1  'x, y, z'
loop_
 _atom_site_type_symbol
 _atom_site_label
 _atom_site_symmetry_multiplicity
 _atom_site_fract_x
 _atom_site_fract_y
 _atom_site_fract_z
 _atom_site_occupancy
  Ca  Ca0  1  0.666667  0.333333  0.000000  1
  Ca  Ca1  1  -0.000000  0.000000  0.813273  1
  Ca  Ca2  1  -0.000000  0.000000  0.500000  1
  Ca  Ca3  1  -0.000000  0.000000  0.186727  1
  Mg  Mg4  1  0.666667  0.333333  0.656387  1
  Mg  Mg5  1  0.666667  0.333333  0.343613  1
