# generated using pymatgen
data_BaEr2CoO5
_symmetry_space_group_name_H-M   'P 1'
_cell_length_a   3.76780726
_cell_length_b   5.79234180
_cell_length_c   6.70253164
_cell_angle_alpha   115.62635738
_cell_angle_beta   106.32343022
_cell_angle_gamma   89.99847258
_symmetry_Int_Tables_number   1
_chemical_formula_structural   BaEr2CoO5
_chemical_formula_sum   'Ba1 Er2 Co1 O5'
_cell_volume   125.31890448
_cell_formula_units_Z   1
loop_
 _symmetry_equiv_pos_site_id
 _symmetry_equiv_pos_as_xyz
  1  'x, y, z'
loop_
 _atom_site_type_symbol
 _atom_site_label
 _atom_site_symmetry_multiplicity
 _atom_site_fract_x
 _atom_site_fract_y
 _atom_site_fract_z
 _atom_site_occupancy
  O  O0  1  0.347679  0.588654  0.695418  1
  O  O1  1  0.652320  0.411346  0.304583  1
  O  O2  1  0.652289  0.893129  0.304499  1
  O  O3  1  0.347711  0.106870  0.695500  1
  O  O4  1  0.000000  0.500000  1.000000  1
  Co  Co5  1  0.500001  0.500000  0.000000  1
  Ba  Ba6  1  1.000000  0.999999  -0.000001  1
  Er  Er7  1  0.796371  0.296415  0.592737  1
  Er  Er8  1  0.203626  0.703585  0.407263  1
