# generated using pymatgen
data_Ni4Mo
_symmetry_space_group_name_H-M   'P 1'
_cell_length_a   3.55903356
_cell_length_b   4.42214062
_cell_length_c   4.42214062
_cell_angle_alpha   80.68080723
_cell_angle_beta   66.27102927
_cell_angle_gamma   66.27102926
_symmetry_Int_Tables_number   1
_chemical_formula_structural   Ni4Mo
_chemical_formula_sum   'Ni4 Mo1'
_cell_volume   58.32774717
_cell_formula_units_Z   1
loop_
 _symmetry_equiv_pos_site_id
 _symmetry_equiv_pos_as_xyz
  1  'x, y, z'
loop_
 _atom_site_type_symbol
 _atom_site_label
 _atom_site_symmetry_multiplicity
 _atom_site_fract_x
 _atom_site_fract_y
 _atom_site_fract_z
 _atom_site_occupancy
  Ni  Ni0  1  0.801060  0.798297  0.599583  1
  Ni  Ni1  1  0.198940  0.201703  0.400417  1
  Ni  Ni2  1  0.599357  0.599583  0.201703  1
  Ni  Ni3  1  0.400643  0.400417  0.798297  1
  Mo  Mo4  1  0.000000  0.000000  0.000000  1
