# generated using pymatgen
data_Cu2SiS3
_symmetry_space_group_name_H-M   'P 1'
_cell_length_a   6.33687174
_cell_length_b   6.34874830
_cell_length_c   6.42513224
_cell_angle_alpha   60.39248896
_cell_angle_beta   81.04735908
_cell_angle_gamma   71.64035623
_symmetry_Int_Tables_number   1
_chemical_formula_structural   Cu2SiS3
_chemical_formula_sum   'Si2 Cu4 S6'
_cell_volume   213.30002638
_cell_formula_units_Z   2
loop_
 _symmetry_equiv_pos_site_id
 _symmetry_equiv_pos_as_xyz
  1  'x, y, z'
loop_
 _atom_site_type_symbol
 _atom_site_label
 _atom_site_symmetry_multiplicity
 _atom_site_fract_x
 _atom_site_fract_y
 _atom_site_fract_z
 _atom_site_occupancy
  Si  Si0  1  0.020587  0.060056  0.830863  1
  Si  Si1  1  0.520587  0.890918  0.169137  1
  S  S2  1  0.118156  0.353317  0.522772  1
  S  S3  1  0.618156  0.876089  0.477228  1
  S  S4  1  0.644947  0.186556  0.848299  1
  S  S5  1  0.144947  0.034855  0.151701  1
  S  S6  1  0.117031  0.709487  0.831312  1
  S  S7  1  0.617031  0.540799  0.168688  1
  Cu  Cu8  1  0.997419  0.751784  0.489835  1
  Cu  Cu9  1  0.497419  0.241619  0.510165  1
  Cu  Cu10  1  0.499161  0.586902  0.824916  1
  Cu  Cu11  1  0.999161  0.411818  0.175084  1
