# generated using pymatgen
data_HfSe3
_symmetry_space_group_name_H-M   'P 1'
_cell_length_a   5.41938859
_cell_length_b   3.74802741
_cell_length_c   9.85860849
_cell_angle_alpha   90.00000000
_cell_angle_beta   97.76608365
_cell_angle_gamma   90.00000000
_symmetry_Int_Tables_number   1
_chemical_formula_structural   HfSe3
_chemical_formula_sum   'Hf2 Se6'
_cell_volume   198.41154703
_cell_formula_units_Z   2
loop_
 _symmetry_equiv_pos_site_id
 _symmetry_equiv_pos_as_xyz
  1  'x, y, z'
loop_
 _atom_site_type_symbol
 _atom_site_label
 _atom_site_symmetry_multiplicity
 _atom_site_fract_x
 _atom_site_fract_y
 _atom_site_fract_z
 _atom_site_occupancy
  Hf  Hf0  1  0.786687  0.249999  0.651113  1
  Hf  Hf1  1  0.213313  0.750001  0.348887  1
  Se  Se2  1  0.949136  0.249999  0.186526  1
  Se  Se3  1  0.050863  0.750001  0.813473  1
  Se  Se4  1  0.388192  0.249999  0.180256  1
  Se  Se5  1  0.611807  0.750001  0.819743  1
  Se  Se6  1  0.263453  0.249999  0.552566  1
  Se  Se7  1  0.736548  0.750001  0.447434  1
