# generated using pymatgen
data_Ni2P2O7
_symmetry_space_group_name_H-M   'P 1'
_cell_length_a   4.51379592
_cell_length_b   5.28416826
_cell_length_c   5.28416825
_cell_angle_alpha   104.17635365
_cell_angle_beta   98.01088654
_cell_angle_gamma   98.01088658
_symmetry_Int_Tables_number   1
_chemical_formula_structural   Ni2P2O7
_chemical_formula_sum   'Ni2 P2 O7'
_cell_volume   119.01340940
_cell_formula_units_Z   1
loop_
 _symmetry_equiv_pos_site_id
 _symmetry_equiv_pos_as_xyz
  1  'x, y, z'
loop_
 _atom_site_type_symbol
 _atom_site_label
 _atom_site_symmetry_multiplicity
 _atom_site_fract_x
 _atom_site_fract_y
 _atom_site_fract_z
 _atom_site_occupancy
  O  O0  1  0.277122  0.925565  0.618062  1
  O  O1  1  0.722878  0.381938  0.074435  1
  O  O2  1  0.722878  0.074435  0.381938  1
  O  O3  1  0.277122  0.618062  0.925565  1
  O  O4  1  0.000000  0.000000  0.000000  1
  O  O5  1  0.783903  0.620171  0.620171  1
  O  O6  1  0.216097  0.379829  0.379829  1
  P  P7  1  0.907197  0.219676  0.219676  1
  P  P8  1  0.092803  0.780324  0.780324  1
  Ni  Ni9  1  0.500000  0.313618  0.686382  1
  Ni  Ni10  1  0.500000  0.686382  0.313618  1
