# generated using pymatgen
data_Pr(Re2Si)2
_symmetry_space_group_name_H-M   'P 1'
_cell_length_a   4.13082879
_cell_length_b   4.18385255
_cell_length_c   7.36584319
_cell_angle_alpha   106.49930059
_cell_angle_beta   90.00000000
_cell_angle_gamma   90.00000000
_symmetry_Int_Tables_number   1
_chemical_formula_structural   Pr(Re2Si)2
_chemical_formula_sum   'Pr1 Re4 Si2'
_cell_volume   122.06033827
_cell_formula_units_Z   1
loop_
 _symmetry_equiv_pos_site_id
 _symmetry_equiv_pos_as_xyz
  1  'x, y, z'
loop_
 _atom_site_type_symbol
 _atom_site_label
 _atom_site_symmetry_multiplicity
 _atom_site_fract_x
 _atom_site_fract_y
 _atom_site_fract_z
 _atom_site_occupancy
  Pr  Pr0  1  0.000000  -0.000000  0.000000  1
  Re  Re1  1  0.500000  0.190203  0.380406  1
  Re  Re2  1  0.500000  0.809797  0.619594  1
  Re  Re3  1  0.000000  0.303438  0.606876  1
  Re  Re4  1  0.000000  0.696562  0.393124  1
  Si  Si5  1  0.500000  0.411002  0.822004  1
  Si  Si6  1  0.500000  0.588998  0.177996  1
