# generated using pymatgen
data_NaVS2
_symmetry_space_group_name_H-M   'P 1'
_cell_length_a   6.86108553
_cell_length_b   6.86108553
_cell_length_c   6.86108554
_cell_angle_alpha   30.31322448
_cell_angle_beta   30.31322446
_cell_angle_gamma   30.31322451
_symmetry_Int_Tables_number   1
_chemical_formula_structural   NaVS2
_chemical_formula_sum   'Na1 V1 S2'
_cell_volume   72.91566881
_cell_formula_units_Z   1
loop_
 _symmetry_equiv_pos_site_id
 _symmetry_equiv_pos_as_xyz
  1  'x, y, z'
loop_
 _atom_site_type_symbol
 _atom_site_label
 _atom_site_symmetry_multiplicity
 _atom_site_fract_x
 _atom_site_fract_y
 _atom_site_fract_z
 _atom_site_occupancy
  Na  Na0  1  0.500000  0.500000  0.500000  1
  S  S1  1  0.265606  0.265606  0.265606  1
  S  S2  1  0.734394  0.734394  0.734394  1
  V  V3  1  0.000000  0.000000  0.000000  1
