# generated using pymatgen
data_Ca(InN)2
_symmetry_space_group_name_H-M   'P 1'
_cell_length_a   5.97870601
_cell_length_b   3.44623134
_cell_length_c   8.12289006
_cell_angle_alpha   90.00000000
_cell_angle_beta   103.90659456
_cell_angle_gamma   90.00000000
_symmetry_Int_Tables_number   1
_chemical_formula_structural   Ca(InN)2
_chemical_formula_sum   'Ca2 In4 N4'
_cell_volume   162.45842240
_cell_formula_units_Z   2
loop_
 _symmetry_equiv_pos_site_id
 _symmetry_equiv_pos_as_xyz
  1  'x, y, z'
loop_
 _atom_site_type_symbol
 _atom_site_label
 _atom_site_symmetry_multiplicity
 _atom_site_fract_x
 _atom_site_fract_y
 _atom_site_fract_z
 _atom_site_occupancy
  Ca  Ca0  1  0.500000  0.500000  0.500000  1
  Ca  Ca1  1  0.000000  0.000000  0.500000  1
  In  In2  1  0.724289  0.500000  0.165982  1
  In  In3  1  0.775711  0.000000  0.834018  1
  In  In4  1  0.224289  0.000000  0.165982  1
  In  In5  1  0.275711  0.500000  0.834018  1
  N  N6  1  0.896513  0.500000  0.693168  1
  N  N7  1  0.603487  0.000000  0.306832  1
  N  N8  1  0.396513  0.000000  0.693168  1
  N  N9  1  0.103487  0.500000  0.306832  1
