# generated using pymatgen
data_SmMn2O5
_symmetry_space_group_name_H-M   'P 1'
_cell_length_a   5.81419921
_cell_length_b   7.50549584
_cell_length_c   8.67377039
_cell_angle_alpha   90.00000000
_cell_angle_beta   90.00000000
_cell_angle_gamma   90.00000000
_symmetry_Int_Tables_number   1
_chemical_formula_structural   SmMn2O5
_chemical_formula_sum   'Sm4 Mn8 O20'
_cell_volume   378.50987799
_cell_formula_units_Z   4
loop_
 _symmetry_equiv_pos_site_id
 _symmetry_equiv_pos_as_xyz
  1  'x, y, z'
loop_
 _atom_site_type_symbol
 _atom_site_label
 _atom_site_symmetry_multiplicity
 _atom_site_fract_x
 _atom_site_fract_y
 _atom_site_fract_z
 _atom_site_occupancy
  O  O0  1  0.244492  0.897792  0.293156  1
  O  O1  1  0.244492  0.102208  0.706844  1
  O  O2  1  0.755508  0.397792  0.206844  1
  O  O3  1  0.755508  0.602208  0.793156  1
  O  O4  1  0.755508  0.102208  0.706844  1
  O  O5  1  0.755508  0.897792  0.293156  1
  O  O6  1  0.244492  0.602208  0.793156  1
  O  O7  1  0.244492  0.397792  0.206844  1
  O  O8  1  0.500000  0.348391  0.933553  1
  O  O9  1  0.500000  0.651609  0.066447  1
  O  O10  1  0.500000  0.848391  0.566447  1
  O  O11  1  0.500000  0.151609  0.433553  1
  O  O12  1  0.274232  0.000000  0.000000  1
  O  O13  1  0.725768  0.500000  0.500000  1
  O  O14  1  0.725768  0.000000  0.000000  1
  O  O15  1  0.274232  0.500000  0.500000  1
  O  O16  1  0.000000  0.160315  0.445588  1
  O  O17  1  0.000000  0.839685  0.554412  1
  O  O18  1  0.000000  0.660315  0.054412  1
  O  O19  1  0.000000  0.339685  0.945588  1
  Mn  Mn20  1  0.500000  0.089745  0.849789  1
  Mn  Mn21  1  0.500000  0.910255  0.150211  1
  Mn  Mn22  1  0.500000  0.589745  0.650211  1
  Mn  Mn23  1  0.500000  0.410255  0.349789  1
  Mn  Mn24  1  0.255481  0.500000  0.000000  1
  Mn  Mn25  1  0.744519  0.000000  0.500000  1
  Mn  Mn26  1  0.744519  0.500000  0.000000  1
  Mn  Mn27  1  0.255481  0.000000  0.500000  1
  Sm  Sm28  1  0.000000  0.360396  0.671496  1
  Sm  Sm29  1  0.000000  0.639604  0.328504  1
  Sm  Sm30  1  0.000000  0.860396  0.828504  1
  Sm  Sm31  1  0.000000  0.139604  0.171496  1
