# generated using pymatgen
data_La5Si4
_symmetry_space_group_name_H-M   'P 1'
_cell_length_a   8.04439186
_cell_length_b   8.04439186
_cell_length_c   15.54728029
_cell_angle_alpha   90.00000000
_cell_angle_beta   90.00000000
_cell_angle_gamma   90.00000000
_symmetry_Int_Tables_number   1
_chemical_formula_structural   La5Si4
_chemical_formula_sum   'La20 Si16'
_cell_volume   1006.09933965
_cell_formula_units_Z   4
loop_
 _symmetry_equiv_pos_site_id
 _symmetry_equiv_pos_as_xyz
  1  'x, y, z'
loop_
 _atom_site_type_symbol
 _atom_site_label
 _atom_site_symmetry_multiplicity
 _atom_site_fract_x
 _atom_site_fract_y
 _atom_site_fract_z
 _atom_site_occupancy
  Si  Si0  1  0.079972  0.711055  0.440753  1
  Si  Si1  1  0.920028  0.288944  0.940753  1
  Si  Si2  1  0.711055  0.079972  0.559247  1
  Si  Si3  1  0.211056  0.420028  0.190753  1
  Si  Si4  1  0.788945  0.579972  0.690753  1
  Si  Si5  1  0.420028  0.211056  0.809247  1
  Si  Si6  1  0.579972  0.788945  0.309247  1
  Si  Si7  1  0.288944  0.920028  0.059247  1
  Si  Si8  1  0.829121  0.805305  0.795699  1
  Si  Si9  1  0.170879  0.194695  0.295699  1
  Si  Si10  1  0.805305  0.829121  0.204301  1
  Si  Si11  1  0.305305  0.670879  0.545699  1
  Si  Si12  1  0.694695  0.329121  0.045699  1
  Si  Si13  1  0.670879  0.305305  0.454301  1
  Si  Si14  1  0.329121  0.694695  0.954301  1
  Si  Si15  1  0.194695  0.170879  0.704301  1
  La  La16  1  0.374445  0.479452  0.373624  1
  La  La17  1  0.874445  0.020548  0.376376  1
  La  La18  1  0.979452  0.125555  0.123624  1
  La  La19  1  0.020548  0.874445  0.623624  1
  La  La20  1  0.625555  0.520548  0.873624  1
  La  La21  1  0.479452  0.374445  0.626376  1
  La  La22  1  0.520548  0.625555  0.126376  1
  La  La23  1  0.125555  0.979452  0.876376  1
  La  La24  1  0.988755  0.620228  0.052958  1
  La  La25  1  0.011245  0.379772  0.552958  1
  La  La26  1  0.620228  0.988755  0.947042  1
  La  La27  1  0.120228  0.511245  0.802958  1
  La  La28  1  0.879772  0.488755  0.302958  1
  La  La29  1  0.511245  0.120228  0.197042  1
  La  La30  1  0.488755  0.879772  0.697042  1
  La  La31  1  0.379772  0.011245  0.447042  1
  La  La32  1  0.692836  0.692836  0.500000  1
  La  La33  1  0.807164  0.192836  0.750000  1
  La  La34  1  0.192836  0.807164  0.250000  1
  La  La35  1  0.307164  0.307164  0.000000  1
