# generated using pymatgen
data_CsOsN2
_symmetry_space_group_name_H-M   'P 1'
_cell_length_a   10.43827350
_cell_length_b   13.22574251
_cell_length_c   9.27046994
_cell_angle_alpha   89.99955804
_cell_angle_beta   63.63545817
_cell_angle_gamma   129.31215113
_symmetry_Int_Tables_number   1
_chemical_formula_structural   CsOsN2
_chemical_formula_sum   'Cs10 Os10 N20'
_cell_volume   810.85625850
_cell_formula_units_Z   10
loop_
 _symmetry_equiv_pos_site_id
 _symmetry_equiv_pos_as_xyz
  1  'x, y, z'
loop_
 _atom_site_type_symbol
 _atom_site_label
 _atom_site_symmetry_multiplicity
 _atom_site_fract_x
 _atom_site_fract_y
 _atom_site_fract_z
 _atom_site_occupancy
  Cs  Cs0  1  0.601749  0.700412  0.965745  1
  Cs  Cs1  1  0.398252  0.299587  0.567494  1
  Cs  Cs2  1  0.799075  0.598668  0.117078  1
  Cs  Cs3  1  0.200925  0.401335  0.916153  1
  Cs  Cs4  1  0.601732  0.200356  0.712828  1
  Cs  Cs5  1  0.398268  0.799644  0.314556  1
  Cs  Cs6  1  0.798980  0.098618  0.364200  1
  Cs  Cs7  1  0.201020  0.901377  0.163179  1
  Cs  Cs8  1  0.000001  0.000003  0.515160  1
  Cs  Cs9  1  0.000001  0.500000  0.765162  1
  Os  Os10  1  0.000002  0.499999  0.265100  1
  Os  Os11  1  0.999976  0.999976  0.015128  1
  Os  Os12  1  0.199744  0.399610  0.414904  1
  Os  Os13  1  0.800243  0.600388  0.614606  1
  Os  Os14  1  0.599491  0.699880  0.465021  1
  Os  Os15  1  0.400540  0.300147  0.064463  1
  Os  Os16  1  0.400495  0.800151  0.815289  1
  Os  Os17  1  0.599505  0.199844  0.215806  1
  Os  Os18  1  0.199806  0.899666  0.665632  1
  Os  Os19  1  0.800188  0.100333  0.865459  1
  N  N20  1  0.098808  0.448994  0.340553  1
  N  N21  1  0.901190  0.551004  0.439365  1
  N  N22  1  0.799182  0.850190  0.240356  1
  N  N23  1  0.200831  0.149823  0.039554  1
  N  N24  1  0.098851  0.949056  0.840965  1
  N  N25  1  0.901158  0.050954  0.939806  1
  N  N26  1  0.799266  0.350213  0.240766  1
  N  N27  1  0.200729  0.649783  0.040035  1
  N  N28  1  0.300563  0.350302  0.239264  1
  N  N29  1  0.699437  0.649691  0.539837  1
  N  N30  1  0.400026  0.549726  0.439507  1
  N  N31  1  0.599937  0.450248  0.839595  1
  N  N32  1  0.300561  0.850307  0.740420  1
  N  N33  1  0.699447  0.149698  0.040973  1
  N  N34  1  0.400059  0.049755  0.440676  1
  N  N35  1  0.599939  0.950246  0.840728  1
  N  N36  1  0.499947  0.749947  0.640145  1
  N  N37  1  0.500048  0.250056  0.140087  1
  N  N38  1  0.999946  0.749997  0.640151  1
  N  N39  1  0.000081  0.250018  0.640052  1
