# generated using pymatgen
data_MgSiO3
_symmetry_space_group_name_H-M   'P 1'
_cell_length_a   18.53819656
_cell_length_b   8.93795721
_cell_length_c   5.12635015
_cell_angle_alpha   90.00000000
_cell_angle_beta   90.00000000
_cell_angle_gamma   90.00000000
_symmetry_Int_Tables_number   1
_chemical_formula_structural   MgSiO3
_chemical_formula_sum   'Mg16 Si16 O48'
_cell_volume   849.40345019
_cell_formula_units_Z   16
loop_
 _symmetry_equiv_pos_site_id
 _symmetry_equiv_pos_as_xyz
  1  'x, y, z'
loop_
 _atom_site_type_symbol
 _atom_site_label
 _atom_site_symmetry_multiplicity
 _atom_site_fract_x
 _atom_site_fract_y
 _atom_site_fract_z
 _atom_site_occupancy
  Mg  Mg0  1  0.124470  0.402912  0.898131  1
  Mg  Mg1  1  0.624471  0.597088  0.101869  1
  Mg  Mg2  1  0.624471  0.402912  0.601869  1
  Mg  Mg3  1  0.124470  0.597088  0.398131  1
  Mg  Mg4  1  0.123495  0.769842  0.897021  1
  Mg  Mg5  1  0.623495  0.230158  0.102979  1
  Mg  Mg6  1  0.623495  0.769842  0.602979  1
  Mg  Mg7  1  0.123495  0.230158  0.397021  1
  Mg  Mg8  1  0.873855  0.098007  0.193084  1
  Mg  Mg9  1  0.373855  0.901993  0.806916  1
  Mg  Mg10  1  0.373855  0.098007  0.306916  1
  Mg  Mg11  1  0.873855  0.901993  0.693084  1
  Mg  Mg12  1  0.880081  0.264273  0.696078  1
  Mg  Mg13  1  0.380081  0.735727  0.303922  1
  Mg  Mg14  1  0.380081  0.264273  0.803922  1
  Mg  Mg15  1  0.880081  0.735727  0.196078  1
  Si  Si16  1  0.271143  0.590280  0.033087  1
  Si  Si17  1  0.771143  0.409720  0.966913  1
  Si  Si18  1  0.771143  0.590280  0.466913  1
  Si  Si19  1  0.271143  0.409720  0.533087  1
  Si  Si20  1  0.227384  0.090880  0.962567  1
  Si  Si21  1  0.727384  0.909120  0.037433  1
  Si  Si22  1  0.727384  0.090880  0.537433  1
  Si  Si23  1  0.227384  0.909120  0.462567  1
  Si  Si24  1  0.474613  0.588654  0.756270  1
  Si  Si25  1  0.974613  0.411346  0.243730  1
  Si  Si26  1  0.974613  0.588654  0.743730  1
  Si  Si27  1  0.474613  0.411346  0.256270  1
  Si  Si28  1  0.525585  0.911563  0.142935  1
  Si  Si29  1  0.025585  0.088437  0.857065  1
  Si  Si30  1  0.025585  0.911563  0.357065  1
  Si  Si31  1  0.525585  0.088437  0.642935  1
  O  O32  1  0.183095  0.590335  0.047550  1
  O  O33  1  0.683095  0.409665  0.952450  1
  O  O34  1  0.683095  0.590335  0.452450  1
  O  O35  1  0.183095  0.409665  0.547550  1
  O  O36  1  0.313496  0.744091  0.989653  1
  O  O37  1  0.813496  0.255909  0.010347  1
  O  O38  1  0.813496  0.744091  0.510347  1
  O  O39  1  0.313496  0.255909  0.489653  1
  O  O40  1  0.301076  0.458758  0.830021  1
  O  O41  1  0.801076  0.541242  0.169979  1
  O  O42  1  0.801076  0.458758  0.669979  1
  O  O43  1  0.301076  0.541242  0.330021  1
  O  O44  1  0.315659  0.091294  0.968197  1
  O  O45  1  0.815659  0.908706  0.031803  1
  O  O46  1  0.815659  0.091294  0.531803  1
  O  O47  1  0.315659  0.908706  0.468197  1
  O  O48  1  0.186817  0.237747  0.071426  1
  O  O49  1  0.686817  0.762253  0.928574  1
  O  O50  1  0.686817  0.237747  0.428574  1
  O  O51  1  0.186817  0.762253  0.571426  1
  O  O52  1  0.199426  0.948510  0.156828  1
  O  O53  1  0.699426  0.051490  0.843172  1
  O  O54  1  0.699426  0.948510  0.343172  1
  O  O55  1  0.199426  0.051490  0.656828  1
  O  O56  1  0.562839  0.591797  0.760478  1
  O  O57  1  0.062839  0.408203  0.239522  1
  O  O58  1  0.062839  0.591797  0.739522  1
  O  O59  1  0.562839  0.408203  0.260478  1
  O  O60  1  0.433693  0.732070  0.639918  1
  O  O61  1  0.933693  0.267930  0.360082  1
  O  O62  1  0.933693  0.732070  0.860082  1
  O  O63  1  0.433693  0.267930  0.139918  1
  O  O64  1  0.448058  0.557079  0.067517  1
  O  O65  1  0.948058  0.442921  0.932483  1
  O  O66  1  0.948058  0.557079  0.432483  1
  O  O67  1  0.448058  0.442921  0.567517  1
  O  O68  1  0.437509  0.910991  0.140599  1
  O  O69  1  0.937509  0.089009  0.859401  1
  O  O70  1  0.937509  0.910991  0.359401  1
  O  O71  1  0.437509  0.089009  0.640599  1
  O  O72  1  0.565246  0.768195  0.265537  1
  O  O73  1  0.065246  0.231805  0.734463  1
  O  O74  1  0.065246  0.768195  0.234463  1
  O  O75  1  0.565246  0.231805  0.765537  1
  O  O76  1  0.552459  0.941264  0.829975  1
  O  O77  1  0.052459  0.058736  0.170025  1
  O  O78  1  0.052459  0.941264  0.670025  1
  O  O79  1  0.552459  0.058736  0.329975  1
