# generated using pymatgen
data_As
_symmetry_space_group_name_H-M   'P 1'
_cell_length_a   6.54916721
_cell_length_b   4.32989824
_cell_length_c   3.77716296
_cell_angle_alpha   115.27667379
_cell_angle_beta   149.79513244
_cell_angle_gamma   60.55472293
_symmetry_Int_Tables_number   1
_chemical_formula_structural   As
_chemical_formula_sum   As2
_cell_volume   46.92497989
_cell_formula_units_Z   2
loop_
 _symmetry_equiv_pos_site_id
 _symmetry_equiv_pos_as_xyz
  1  'x, y, z'
loop_
 _atom_site_type_symbol
 _atom_site_label
 _atom_site_symmetry_multiplicity
 _atom_site_fract_x
 _atom_site_fract_y
 _atom_site_fract_z
 _atom_site_occupancy
  As  As0  1  0.786171  0.182248  0.024170  1
  As  As1  1  0.227613  0.835837  0.019928  1
