# generated using pymatgen
data_Mg2SbN3
_symmetry_space_group_name_H-M   'P 1'
_cell_length_a   5.95227150
_cell_length_b   10.34730574
_cell_length_c   5.41887977
_cell_angle_alpha   90.00000000
_cell_angle_beta   90.00000000
_cell_angle_gamma   90.00000000
_symmetry_Int_Tables_number   1
_chemical_formula_structural   Mg2SbN3
_chemical_formula_sum   'Mg8 Sb4 N12'
_cell_volume   333.74865904
_cell_formula_units_Z   4
loop_
 _symmetry_equiv_pos_site_id
 _symmetry_equiv_pos_as_xyz
  1  'x, y, z'
loop_
 _atom_site_type_symbol
 _atom_site_label
 _atom_site_symmetry_multiplicity
 _atom_site_fract_x
 _atom_site_fract_y
 _atom_site_fract_z
 _atom_site_occupancy
  Mg  Mg0  1  0.837979  0.829750  0.487970  1
  Mg  Mg1  1  0.337979  0.670250  0.487970  1
  Mg  Mg2  1  0.662021  0.670250  0.987970  1
  Mg  Mg3  1  0.162021  0.829750  0.987970  1
  Mg  Mg4  1  0.337979  0.329750  0.487970  1
  Mg  Mg5  1  0.837979  0.170250  0.487970  1
  Mg  Mg6  1  0.162021  0.170250  0.987970  1
  Mg  Mg7  1  0.662021  0.329750  0.987970  1
  Sb  Sb8  1  0.824366  0.500000  0.481085  1
  Sb  Sb9  1  0.675634  -0.000000  0.981085  1
  Sb  Sb10  1  0.324366  -0.000000  0.481085  1
  Sb  Sb11  1  0.175634  0.500000  0.981085  1
  N  N12  1  0.825938  0.838833  0.875944  1
  N  N13  1  0.325938  0.661167  0.875944  1
  N  N14  1  0.674062  0.661167  0.375944  1
  N  N15  1  0.174062  0.838833  0.375944  1
  N  N16  1  0.345362  0.000000  0.863088  1
  N  N17  1  0.154638  0.500000  0.363088  1
  N  N18  1  0.325938  0.338833  0.875944  1
  N  N19  1  0.825938  0.161167  0.875944  1
  N  N20  1  0.174062  0.161167  0.375944  1
  N  N21  1  0.674062  0.338833  0.375944  1
  N  N22  1  0.845362  0.500000  0.863088  1
  N  N23  1  0.654638  -0.000000  0.363088  1
