# generated using pymatgen
data_Lu(FeO2)2
_symmetry_space_group_name_H-M   'P 1'
_cell_length_a   8.72529922
_cell_length_b   8.72529922
_cell_length_c   8.72529922
_cell_angle_alpha   22.77256130
_cell_angle_beta   22.77256125
_cell_angle_gamma   22.77256127
_symmetry_Int_Tables_number   1
_chemical_formula_structural   Lu(FeO2)2
_chemical_formula_sum   'Lu1 Fe2 O4'
_cell_volume   87.32467659
_cell_formula_units_Z   1
loop_
 _symmetry_equiv_pos_site_id
 _symmetry_equiv_pos_as_xyz
  1  'x, y, z'
loop_
 _atom_site_type_symbol
 _atom_site_label
 _atom_site_symmetry_multiplicity
 _atom_site_fract_x
 _atom_site_fract_y
 _atom_site_fract_z
 _atom_site_occupancy
  O  O0  1  0.707129  0.707129  0.707129  1
  O  O1  1  0.292871  0.292871  0.292871  1
  O  O2  1  0.871468  0.871468  0.871468  1
  O  O3  1  0.128532  0.128532  0.128532  1
  Fe  Fe4  1  0.785520  0.785520  0.785520  1
  Fe  Fe5  1  0.214480  0.214480  0.214480  1
  Lu  Lu6  1  0.000000  0.000000  0.000000  1
