# generated using pymatgen
data_CaC2
_symmetry_space_group_name_H-M   'P 1'
_cell_length_a   3.53789675
_cell_length_b   3.53789675
_cell_length_c   3.53789690
_cell_angle_alpha   86.90082427
_cell_angle_beta   86.90082427
_cell_angle_gamma   86.90081956
_symmetry_Int_Tables_number   1
_chemical_formula_structural   CaC2
_chemical_formula_sum   'Ca1 C2'
_cell_volume   44.09528639
_cell_formula_units_Z   1
loop_
 _symmetry_equiv_pos_site_id
 _symmetry_equiv_pos_as_xyz
  1  'x, y, z'
loop_
 _atom_site_type_symbol
 _atom_site_label
 _atom_site_symmetry_multiplicity
 _atom_site_fract_x
 _atom_site_fract_y
 _atom_site_fract_z
 _atom_site_occupancy
  Ca  Ca0  1  0.000000  0.000000  0.000000  1
  C  C1  1  0.598202  0.598202  0.598202  1
  C  C2  1  0.401798  0.401798  0.401798  1
