# generated using pymatgen
data_Cr3Co
_symmetry_space_group_name_H-M   'P 1'
_cell_length_a   4.08336916
_cell_length_b   5.08279293
_cell_length_c   5.08296473
_cell_angle_alpha   120.00506348
_cell_angle_beta   90.00000000
_cell_angle_gamma   90.00000000
_symmetry_Int_Tables_number   1
_chemical_formula_structural   Cr3Co
_chemical_formula_sum   'Cr6 Co2'
_cell_volume   91.35800939
_cell_formula_units_Z   2
loop_
 _symmetry_equiv_pos_site_id
 _symmetry_equiv_pos_as_xyz
  1  'x, y, z'
loop_
 _atom_site_type_symbol
 _atom_site_label
 _atom_site_symmetry_multiplicity
 _atom_site_fract_x
 _atom_site_fract_y
 _atom_site_fract_z
 _atom_site_occupancy
  Cr  Cr0  1  0.750000  0.835175  0.164780  1
  Cr  Cr1  1  0.250000  0.164872  0.835164  1
  Cr  Cr2  1  0.750000  0.329541  0.164769  1
  Cr  Cr3  1  0.250000  0.670390  0.835208  1
  Cr  Cr4  1  0.750000  0.835205  0.670431  1
  Cr  Cr5  1  0.250000  0.164820  0.329648  1
  Co  Co6  1  0.250000  0.666671  0.333348  1
  Co  Co7  1  0.750000  0.333325  0.666661  1
