# generated using pymatgen
data_Ca4ZrN4
_symmetry_space_group_name_H-M   'P 1'
_cell_length_a   6.15201934
_cell_length_b   6.15140044
_cell_length_c   9.34003009
_cell_angle_alpha   70.74809687
_cell_angle_beta   81.71200107
_cell_angle_gamma   68.52300398
_symmetry_Int_Tables_number   1
_chemical_formula_structural   Ca4ZrN4
_chemical_formula_sum   'Ca8 Zr2 N8'
_cell_volume   310.41302447
_cell_formula_units_Z   2
loop_
 _symmetry_equiv_pos_site_id
 _symmetry_equiv_pos_as_xyz
  1  'x, y, z'
loop_
 _atom_site_type_symbol
 _atom_site_label
 _atom_site_symmetry_multiplicity
 _atom_site_fract_x
 _atom_site_fract_y
 _atom_site_fract_z
 _atom_site_occupancy
  Ca  Ca0  1  0.728153  0.619890  0.195605  1
  Ca  Ca1  1  0.271847  0.380110  0.804395  1
  Ca  Ca2  1  0.756707  0.243830  0.994072  1
  Ca  Ca3  1  0.243293  0.756170  0.005928  1
  Ca  Ca4  1  0.737542  0.475615  0.574529  1
  Ca  Ca5  1  0.262458  0.524385  0.425471  1
  Ca  Ca6  1  0.248496  0.942479  0.594633  1
  Ca  Ca7  1  0.751504  0.057521  0.405367  1
  Zr  Zr8  1  0.720494  0.841914  0.765534  1
  Zr  Zr9  1  0.279506  0.158086  0.234466  1
  N  N10  1  0.986811  0.698688  0.615288  1
  N  N11  1  0.013189  0.301312  0.384712  1
  N  N12  1  0.843395  0.854115  0.958146  1
  N  N13  1  0.156605  0.145885  0.041854  1
  N  N14  1  0.510944  0.621583  0.801699  1
  N  N15  1  0.489056  0.378417  0.198301  1
  N  N16  1  0.486255  0.816986  0.380009  1
  N  N17  1  0.513745  0.183014  0.619991  1
