# generated using pymatgen
data_Si
_symmetry_space_group_name_H-M   'P 1'
_cell_length_a   3.92804371
_cell_length_b   3.32612002
_cell_length_c   4.97172187
_cell_angle_alpha   109.54236898
_cell_angle_beta   90.00000000
_cell_angle_gamma   90.00000000
_symmetry_Int_Tables_number   1
_chemical_formula_structural   Si
_chemical_formula_sum   Si4
_cell_volume   61.21442093
_cell_formula_units_Z   4
loop_
 _symmetry_equiv_pos_site_id
 _symmetry_equiv_pos_as_xyz
  1  'x, y, z'
loop_
 _atom_site_type_symbol
 _atom_site_label
 _atom_site_symmetry_multiplicity
 _atom_site_fract_x
 _atom_site_fract_y
 _atom_site_fract_z
 _atom_site_occupancy
  Si  Si0  1  0.000000  0.639659  0.780764  1
  Si  Si1  1  -0.000000  0.370749  0.240052  1
  Si  Si2  1  0.500000  0.849355  0.200156  1
  Si  Si3  1  0.500000  0.121158  0.740868  1
