# generated using pymatgen
data_ScAuO2
_symmetry_space_group_name_H-M   'P 1'
_cell_length_a   3.26874062
_cell_length_b   3.26874062
_cell_length_c   12.30613742
_cell_angle_alpha   90.00000000
_cell_angle_beta   90.00000000
_cell_angle_gamma   119.99999996
_symmetry_Int_Tables_number   1
_chemical_formula_structural   ScAuO2
_chemical_formula_sum   'Sc2 Au2 O4'
_cell_volume   113.87104672
_cell_formula_units_Z   2
loop_
 _symmetry_equiv_pos_site_id
 _symmetry_equiv_pos_as_xyz
  1  'x, y, z'
loop_
 _atom_site_type_symbol
 _atom_site_label
 _atom_site_symmetry_multiplicity
 _atom_site_fract_x
 _atom_site_fract_y
 _atom_site_fract_z
 _atom_site_occupancy
  O  O0  1  0.333333  0.666667  0.418510  1
  O  O1  1  0.666667  0.333333  0.918510  1
  O  O2  1  0.333333  0.666667  0.081490  1
  O  O3  1  0.666667  0.333333  0.581490  1
  Sc  Sc4  1  0.000000  0.000000  0.000000  1
  Sc  Sc5  1  0.000000  0.000000  0.500000  1
  Au  Au6  1  0.666667  0.333333  0.750000  1
  Au  Au7  1  0.333333  0.666667  0.250000  1
