# generated using pymatgen
data_SmS
_symmetry_space_group_name_H-M   'P 1'
_cell_length_a   3.91883712
_cell_length_b   3.91883712
_cell_length_c   11.00430032
_cell_angle_alpha   100.25521179
_cell_angle_beta   100.25521178
_cell_angle_gamma   90.00846095
_symmetry_Int_Tables_number   1
_chemical_formula_structural   SmS
_chemical_formula_sum   'Sm2 S2'
_cell_volume   163.55119562
_cell_formula_units_Z   2
loop_
 _symmetry_equiv_pos_site_id
 _symmetry_equiv_pos_as_xyz
  1  'x, y, z'
loop_
 _atom_site_type_symbol
 _atom_site_label
 _atom_site_symmetry_multiplicity
 _atom_site_fract_x
 _atom_site_fract_y
 _atom_site_fract_z
 _atom_site_occupancy
  S  S0  1  0.174199  0.171193  0.345392  1
  S  S1  1  0.828807  0.825801  0.654608  1
  Sm  Sm2  1  0.307357  0.304363  0.611720  1
  Sm  Sm3  1  0.695637  0.692643  0.388280  1
