# generated using pymatgen
data_MoS2
_symmetry_space_group_name_H-M   'P 1'
_cell_length_a   3.19302586
_cell_length_b   3.19280881
_cell_length_c   13.98276774
_cell_angle_alpha   90.00000000
_cell_angle_beta   90.00000000
_cell_angle_gamma   120.00224881
_symmetry_Int_Tables_number   1
_chemical_formula_structural   MoS2
_chemical_formula_sum   'Mo2 S4'
_cell_volume   123.44948512
_cell_formula_units_Z   2
loop_
 _symmetry_equiv_pos_site_id
 _symmetry_equiv_pos_as_xyz
  1  'x, y, z'
loop_
 _atom_site_type_symbol
 _atom_site_label
 _atom_site_symmetry_multiplicity
 _atom_site_fract_x
 _atom_site_fract_y
 _atom_site_fract_z
 _atom_site_occupancy
  Mo  Mo0  1  0.999947  0.999895  0.250000  1
  Mo  Mo1  1  0.000053  0.000105  0.750000  1
  S  S2  1  0.333288  0.666576  0.362009  1
  S  S3  1  0.666712  0.333424  0.637991  1
  S  S4  1  0.666712  0.333424  0.862009  1
  S  S5  1  0.333288  0.666576  0.137991  1
