# generated using pymatgen
data_ErCu2
_symmetry_space_group_name_H-M   'P 1'
_cell_length_a   4.30861381
_cell_length_b   5.37044190
_cell_length_c   5.37044190
_cell_angle_alpha   76.83589813
_cell_angle_beta   66.35044389
_cell_angle_gamma   66.35044389
_symmetry_Int_Tables_number   1
_chemical_formula_structural   ErCu2
_chemical_formula_sum   'Er2 Cu4'
_cell_volume   103.93986075
_cell_formula_units_Z   2
loop_
 _symmetry_equiv_pos_site_id
 _symmetry_equiv_pos_as_xyz
  1  'x, y, z'
loop_
 _atom_site_type_symbol
 _atom_site_label
 _atom_site_symmetry_multiplicity
 _atom_site_fract_x
 _atom_site_fract_y
 _atom_site_fract_z
 _atom_site_occupancy
  Er  Er0  1  0.452485  0.297515  0.797515  1
  Er  Er1  1  0.547515  0.702485  0.202485  1
  Cu  Cu2  1  0.835340  0.110422  0.218898  1
  Cu  Cu3  1  0.164660  0.889578  0.781102  1
  Cu  Cu4  1  0.835340  0.718898  0.610422  1
  Cu  Cu5  1  0.164660  0.281102  0.389578  1
