# generated using pymatgen
data_SmTaO4
_symmetry_space_group_name_H-M   'P 1'
_cell_length_a   5.23516297
_cell_length_b   5.42793825
_cell_length_c   5.60712311
_cell_angle_alpha   90.00000000
_cell_angle_beta   90.00000000
_cell_angle_gamma   96.80373283
_symmetry_Int_Tables_number   1
_chemical_formula_structural   SmTaO4
_chemical_formula_sum   'Sm2 Ta2 O8'
_cell_volume   158.21074795
_cell_formula_units_Z   2
loop_
 _symmetry_equiv_pos_site_id
 _symmetry_equiv_pos_as_xyz
  1  'x, y, z'
loop_
 _atom_site_type_symbol
 _atom_site_label
 _atom_site_symmetry_multiplicity
 _atom_site_fract_x
 _atom_site_fract_y
 _atom_site_fract_z
 _atom_site_occupancy
  O  O0  1  0.727313  0.006879  0.563195  1
  O  O1  1  0.272687  0.493121  0.563195  1
  O  O2  1  0.272687  0.993121  0.436805  1
  O  O3  1  0.727313  0.506879  0.436805  1
  O  O4  1  0.253477  0.607207  0.091114  1
  O  O5  1  0.746523  0.892793  0.091114  1
  O  O6  1  0.746523  0.392793  0.908886  1
  O  O7  1  0.253477  0.107207  0.908886  1
  Sm  Sm8  1  0.000000  0.750000  0.765484  1
  Sm  Sm9  1  0.000000  0.250000  0.234516  1
  Ta  Ta10  1  0.500000  0.250000  0.688714  1
  Ta  Ta11  1  0.500000  0.750000  0.311286  1
