# generated using pymatgen
data_Yb2C(NO)2
_symmetry_space_group_name_H-M   'P 1'
_cell_length_a   3.75282464
_cell_length_b   3.75282464
_cell_length_c   8.33143412
_cell_angle_alpha   90.00000000
_cell_angle_beta   90.00000000
_cell_angle_gamma   120.00000003
_symmetry_Int_Tables_number   1
_chemical_formula_structural   Yb2C(NO)2
_chemical_formula_sum   'Yb2 C1 N2 O2'
_cell_volume   101.61713319
_cell_formula_units_Z   1
loop_
 _symmetry_equiv_pos_site_id
 _symmetry_equiv_pos_as_xyz
  1  'x, y, z'
loop_
 _atom_site_type_symbol
 _atom_site_label
 _atom_site_symmetry_multiplicity
 _atom_site_fract_x
 _atom_site_fract_y
 _atom_site_fract_z
 _atom_site_occupancy
  C  C0  1  0.000000  0.000000  0.500000  1
  N  N1  1  0.000000  0.000000  0.648304  1
  N  N2  1  0.000000  0.000000  0.351696  1
  O  O3  1  0.333333  0.666667  0.898965  1
  O  O4  1  0.666667  0.333333  0.101035  1
  Yb  Yb5  1  0.666667  0.333333  0.827593  1
  Yb  Yb6  1  0.333333  0.666667  0.172407  1
