# generated using pymatgen
data_Lu2Fe2Si2C
_symmetry_space_group_name_H-M   'P 1'
_cell_length_a   3.87964468
_cell_length_b   5.56562760
_cell_length_c   5.54233923
_cell_angle_alpha   72.79350063
_cell_angle_beta   69.51264504
_cell_angle_gamma   69.60219519
_symmetry_Int_Tables_number   1
_chemical_formula_structural   Lu2Fe2Si2C
_chemical_formula_sum   'Lu2 Fe2 Si2 C1'
_cell_volume   102.99508457
_cell_formula_units_Z   1
loop_
 _symmetry_equiv_pos_site_id
 _symmetry_equiv_pos_as_xyz
  1  'x, y, z'
loop_
 _atom_site_type_symbol
 _atom_site_label
 _atom_site_symmetry_multiplicity
 _atom_site_fract_x
 _atom_site_fract_y
 _atom_site_fract_z
 _atom_site_occupancy
  Lu  Lu0  1  0.440839  0.826629  0.291693  1
  Lu  Lu1  1  0.559161  0.173371  0.708307  1
  Fe  Fe2  1  0.796666  0.307271  0.099397  1
  Fe  Fe3  1  0.203334  0.692729  0.900603  1
  Si  Si4  1  0.842929  0.606371  0.707772  1
  Si  Si5  1  0.157071  0.393629  0.292228  1
  C  C6  1  0.000000  -0.000000  -0.000000  1
