# generated using pymatgen
data_MoBr3
_symmetry_space_group_name_H-M   'P 1'
_cell_length_a   7.20561999
_cell_length_b   12.51584357
_cell_length_c   6.12339568
_cell_angle_alpha   90.00000000
_cell_angle_beta   90.00000000
_cell_angle_gamma   90.00000000
_symmetry_Int_Tables_number   1
_chemical_formula_structural   MoBr3
_chemical_formula_sum   'Mo4 Br12'
_cell_volume   552.23484264
_cell_formula_units_Z   4
loop_
 _symmetry_equiv_pos_site_id
 _symmetry_equiv_pos_as_xyz
  1  'x, y, z'
loop_
 _atom_site_type_symbol
 _atom_site_label
 _atom_site_symmetry_multiplicity
 _atom_site_fract_x
 _atom_site_fract_y
 _atom_site_fract_z
 _atom_site_occupancy
  Mo  Mo0  1  0.253223  0.250000  0.021631  1
  Mo  Mo1  1  0.253223  0.250000  0.478368  1
  Mo  Mo2  1  0.746776  0.750000  0.521631  1
  Mo  Mo3  1  0.746776  0.750000  0.978368  1
  Br  Br4  1  0.104165  0.100484  0.250000  1
  Br  Br5  1  0.552344  0.250000  0.250000  1
  Br  Br6  1  0.104165  0.399515  0.250000  1
  Br  Br7  1  0.605240  0.609286  0.250000  1
  Br  Br8  1  0.029381  0.750000  0.250000  1
  Br  Br9  1  0.605240  0.890714  0.250000  1
  Br  Br10  1  0.394760  0.109286  0.750001  1
  Br  Br11  1  0.970620  0.250000  0.750001  1
  Br  Br12  1  0.394760  0.390714  0.750001  1
  Br  Br13  1  0.895835  0.600485  0.750001  1
  Br  Br14  1  0.447656  0.750000  0.750001  1
  Br  Br15  1  0.895835  0.899516  0.750001  1
