# generated using pymatgen
data_BeCl2
_symmetry_space_group_name_H-M   'P 1'
_cell_length_a   5.24706285
_cell_length_b   5.73791103
_cell_length_c   6.58585978
_cell_angle_alpha   115.82497696
_cell_angle_beta   113.47558343
_cell_angle_gamma   90.00000000
_symmetry_Int_Tables_number   1
_chemical_formula_structural   BeCl2
_chemical_formula_sum   'Be2 Cl4'
_cell_volume   160.04939994
_cell_formula_units_Z   2
loop_
 _symmetry_equiv_pos_site_id
 _symmetry_equiv_pos_as_xyz
  1  'x, y, z'
loop_
 _atom_site_type_symbol
 _atom_site_label
 _atom_site_symmetry_multiplicity
 _atom_site_fract_x
 _atom_site_fract_y
 _atom_site_fract_z
 _atom_site_occupancy
  Be  Be0  1  0.250000  0.000000  0.000000  1
  Be  Be1  1  0.750000  0.000000  0.000000  1
  Cl  Cl2  1  0.603482  0.911542  0.206964  1
  Cl  Cl3  1  0.396518  0.088458  0.793036  1
  Cl  Cl4  1  0.103482  0.295422  0.206964  1
  Cl  Cl5  1  0.896518  0.704578  0.793036  1
