# generated using pymatgen
data_Na(CuS)4
_symmetry_space_group_name_H-M   'P 1'
_cell_length_a   3.82012850
_cell_length_b   3.82012849
_cell_length_c   12.15639827
_cell_angle_alpha   90.00000000
_cell_angle_beta   90.00000000
_cell_angle_gamma   120.00000005
_symmetry_Int_Tables_number   1
_chemical_formula_structural   Na(CuS)4
_chemical_formula_sum   'Na1 Cu4 S4'
_cell_volume   153.63547039
_cell_formula_units_Z   1
loop_
 _symmetry_equiv_pos_site_id
 _symmetry_equiv_pos_as_xyz
  1  'x, y, z'
loop_
 _atom_site_type_symbol
 _atom_site_label
 _atom_site_symmetry_multiplicity
 _atom_site_fract_x
 _atom_site_fract_y
 _atom_site_fract_z
 _atom_site_occupancy
  Na  Na0  1  0.000000  0.000000  0.500000  1
  S  S1  1  0.000000  0.000000  0.913200  1
  S  S2  1  0.000000  0.000000  0.086800  1
  S  S3  1  0.666667  0.333333  0.659121  1
  S  S4  1  0.333333  0.666667  0.340879  1
  Cu  Cu5  1  0.666667  0.333333  0.851628  1
  Cu  Cu6  1  0.333333  0.666667  0.148372  1
  Cu  Cu7  1  0.333333  0.666667  0.688544  1
  Cu  Cu8  1  0.666667  0.333333  0.311456  1
