# generated using pymatgen
data_SiCl4
_symmetry_space_group_name_H-M   'P 1'
_cell_length_a   6.85595010
_cell_length_b   10.39911869
_cell_length_c   10.48666355
_cell_angle_alpha   102.88977778
_cell_angle_beta   90.00000000
_cell_angle_gamma   90.00000000
_symmetry_Int_Tables_number   1
_chemical_formula_structural   SiCl4
_chemical_formula_sum   'Si4 Cl16'
_cell_volume   728.81531023
_cell_formula_units_Z   4
loop_
 _symmetry_equiv_pos_site_id
 _symmetry_equiv_pos_as_xyz
  1  'x, y, z'
loop_
 _atom_site_type_symbol
 _atom_site_label
 _atom_site_symmetry_multiplicity
 _atom_site_fract_x
 _atom_site_fract_y
 _atom_site_fract_z
 _atom_site_occupancy
  Si  Si0  1  0.928323  0.750319  0.643089  1
  Si  Si1  1  0.428323  0.249681  0.856911  1
  Si  Si2  1  0.071677  0.249681  0.356911  1
  Si  Si3  1  0.571677  0.750319  0.143089  1
  Cl  Cl4  1  0.069059  0.597891  0.695921  1
  Cl  Cl5  1  0.569059  0.402109  0.804079  1
  Cl  Cl6  1  0.930941  0.402109  0.304079  1
  Cl  Cl7  1  0.430941  0.597891  0.195921  1
  Cl  Cl8  1  0.930851  0.910142  0.795673  1
  Cl  Cl9  1  0.430851  0.089858  0.704327  1
  Cl  Cl10  1  0.069149  0.089858  0.204327  1
  Cl  Cl11  1  0.569149  0.910142  0.295673  1
  Cl  Cl12  1  0.066039  0.795773  0.487043  1
  Cl  Cl13  1  0.566039  0.204227  0.012957  1
  Cl  Cl14  1  0.933961  0.204227  0.512957  1
  Cl  Cl15  1  0.433961  0.795773  0.987043  1
  Cl  Cl16  1  0.647832  0.697135  0.593974  1
  Cl  Cl17  1  0.147832  0.302865  0.906026  1
  Cl  Cl18  1  0.352168  0.302865  0.406026  1
  Cl  Cl19  1  0.852168  0.697135  0.093974  1
