# generated using pymatgen
data_TbFeSi
_symmetry_space_group_name_H-M   'P 1'
_cell_length_a   4.04479265
_cell_length_b   4.04479265
_cell_length_c   6.59879178
_cell_angle_alpha   90.00000000
_cell_angle_beta   90.00000000
_cell_angle_gamma   90.00000000
_symmetry_Int_Tables_number   1
_chemical_formula_structural   TbFeSi
_chemical_formula_sum   'Tb2 Fe2 Si2'
_cell_volume   107.95852714
_cell_formula_units_Z   2
loop_
 _symmetry_equiv_pos_site_id
 _symmetry_equiv_pos_as_xyz
  1  'x, y, z'
loop_
 _atom_site_type_symbol
 _atom_site_label
 _atom_site_symmetry_multiplicity
 _atom_site_fract_x
 _atom_site_fract_y
 _atom_site_fract_z
 _atom_site_occupancy
  Si  Si0  1  0.750000  0.750000  0.824218  1
  Si  Si1  1  0.250000  0.250000  0.175782  1
  Fe  Fe2  1  0.750000  0.250000  0.000000  1
  Fe  Fe3  1  0.250000  0.750000  0.000000  1
  Tb  Tb4  1  0.750000  0.750000  0.314104  1
  Tb  Tb5  1  0.250000  0.250000  0.685896  1
