# generated using pymatgen
data_LiH6ClO7
_symmetry_space_group_name_H-M   'P 1'
_cell_length_a   7.73319175
_cell_length_b   7.73319188
_cell_length_c   5.58660989
_cell_angle_alpha   90.00000000
_cell_angle_beta   90.00000000
_cell_angle_gamma   119.99999951
_symmetry_Int_Tables_number   1
_chemical_formula_structural   LiH6ClO7
_chemical_formula_sum   'Li2 H12 Cl2 O14'
_cell_volume   289.33205036
_cell_formula_units_Z   2
loop_
 _symmetry_equiv_pos_site_id
 _symmetry_equiv_pos_as_xyz
  1  'x, y, z'
loop_
 _atom_site_type_symbol
 _atom_site_label
 _atom_site_symmetry_multiplicity
 _atom_site_fract_x
 _atom_site_fract_y
 _atom_site_fract_z
 _atom_site_occupancy
  Li  Li0  1  0.000000  0.000000  0.730709  1
  Li  Li1  1  0.000000  0.000000  0.230709  1
  H  H2  1  0.733224  0.668565  0.478709  1
  H  H3  1  0.266776  0.935341  0.978709  1
  H  H4  1  0.331435  0.064659  0.478709  1
  H  H5  1  0.733224  0.064659  0.478709  1
  H  H6  1  0.266776  0.331435  0.978709  1
  H  H7  1  0.064659  0.733224  0.978709  1
  H  H8  1  0.935341  0.668565  0.478709  1
  H  H9  1  0.064659  0.331435  0.978709  1
  H  H10  1  0.668565  0.935341  0.978709  1
  H  H11  1  0.331435  0.266776  0.478709  1
  H  H12  1  0.935341  0.266776  0.478709  1
  H  H13  1  0.668565  0.733224  0.978709  1
  Cl  Cl14  1  0.666667  0.333333  0.010832  1
  Cl  Cl15  1  0.333333  0.666667  0.510832  1
  O  O16  1  0.756693  0.878347  0.983379  1
  O  O17  1  0.563704  0.436296  0.920541  1
  O  O18  1  0.436296  0.563704  0.420541  1
  O  O19  1  0.127407  0.563704  0.420541  1
  O  O20  1  0.878347  0.121653  0.483379  1
  O  O21  1  0.243307  0.121653  0.483379  1
  O  O22  1  0.121653  0.243307  0.983379  1
  O  O23  1  0.333333  0.666667  0.770945  1
  O  O24  1  0.872593  0.436296  0.920541  1
  O  O25  1  0.878347  0.756693  0.483379  1
  O  O26  1  0.666667  0.333333  0.270945  1
  O  O27  1  0.436296  0.872593  0.420541  1
  O  O28  1  0.563704  0.127407  0.920541  1
  O  O29  1  0.121653  0.878347  0.983379  1
