# generated using pymatgen
data_LaI3
_symmetry_space_group_name_H-M   'P 1'
_cell_length_a   4.44717822
_cell_length_b   8.12122637
_cell_length_c   10.16318123
_cell_angle_alpha   90.00000000
_cell_angle_beta   90.00000000
_cell_angle_gamma   105.89049518
_symmetry_Int_Tables_number   1
_chemical_formula_structural   LaI3
_chemical_formula_sum   'La2 I6'
_cell_volume   353.03243387
_cell_formula_units_Z   2
loop_
 _symmetry_equiv_pos_site_id
 _symmetry_equiv_pos_as_xyz
  1  'x, y, z'
loop_
 _atom_site_type_symbol
 _atom_site_label
 _atom_site_symmetry_multiplicity
 _atom_site_fract_x
 _atom_site_fract_y
 _atom_site_fract_z
 _atom_site_occupancy
  I  I0  1  0.344977  0.689954  0.433248  1
  I  I1  1  0.655023  0.310046  0.566752  1
  I  I2  1  0.905394  0.810787  0.750000  1
  I  I3  1  0.094606  0.189213  0.250000  1
  I  I4  1  0.344977  0.689954  0.066752  1
  I  I5  1  0.655023  0.310046  0.933248  1
  La  La6  1  0.741389  0.482779  0.250000  1
  La  La7  1  0.258611  0.517221  0.750000  1
