# generated using pymatgen
data_V3Sb2
_symmetry_space_group_name_H-M   'P 1'
_cell_length_a   7.54757417
_cell_length_b   7.54757417
_cell_length_c   7.54757417
_cell_angle_alpha   42.90504174
_cell_angle_beta   42.90504175
_cell_angle_gamma   42.90504174
_symmetry_Int_Tables_number   1
_chemical_formula_structural   V3Sb2
_chemical_formula_sum   'V6 Sb4'
_cell_volume   180.58389962
_cell_formula_units_Z   2
loop_
 _symmetry_equiv_pos_site_id
 _symmetry_equiv_pos_as_xyz
  1  'x, y, z'
loop_
 _atom_site_type_symbol
 _atom_site_label
 _atom_site_symmetry_multiplicity
 _atom_site_fract_x
 _atom_site_fract_y
 _atom_site_fract_z
 _atom_site_occupancy
  V  V0  1  0.600793  0.129262  0.600793  1
  V  V1  1  0.600793  0.600793  0.129262  1
  V  V2  1  0.129262  0.600793  0.600793  1
  V  V3  1  0.870738  0.399207  0.399207  1
  V  V4  1  0.399207  0.870738  0.399207  1
  V  V5  1  0.399207  0.399207  0.870738  1
  Sb  Sb6  1  0.111102  0.111102  0.111102  1
  Sb  Sb7  1  0.888898  0.888898  0.888898  1
  Sb  Sb8  1  0.330907  0.330907  0.330907  1
  Sb  Sb9  1  0.669093  0.669093  0.669093  1
