# generated using pymatgen
data_Si2Mo
_symmetry_space_group_name_H-M   'P 1'
_cell_length_a   3.22163949
_cell_length_b   3.22163949
_cell_length_c   4.54890645
_cell_angle_alpha   110.73899553
_cell_angle_beta   110.73899550
_cell_angle_gamma   89.99999991
_symmetry_Int_Tables_number   1
_chemical_formula_structural   Si2Mo
_chemical_formula_sum   'Si2 Mo1'
_cell_volume   40.86605596
_cell_formula_units_Z   1
loop_
 _symmetry_equiv_pos_site_id
 _symmetry_equiv_pos_as_xyz
  1  'x, y, z'
loop_
 _atom_site_type_symbol
 _atom_site_label
 _atom_site_symmetry_multiplicity
 _atom_site_fract_x
 _atom_site_fract_y
 _atom_site_fract_z
 _atom_site_occupancy
  Si  Si0  1  0.664492  0.664492  0.328984  1
  Si  Si1  1  0.335508  0.335508  0.671016  1
  Mo  Mo2  1  0.000000  0.000000  0.000000  1
