# generated using pymatgen
data_CsMgI3
_symmetry_space_group_name_H-M   'P 1'
_cell_length_a   8.37728666
_cell_length_b   8.37728642
_cell_length_c   7.12068969
_cell_angle_alpha   90.00000000
_cell_angle_beta   90.00000000
_cell_angle_gamma   120.00000093
_symmetry_Int_Tables_number   1
_chemical_formula_structural   CsMgI3
_chemical_formula_sum   'Cs2 Mg2 I6'
_cell_volume   432.77227354
_cell_formula_units_Z   2
loop_
 _symmetry_equiv_pos_site_id
 _symmetry_equiv_pos_as_xyz
  1  'x, y, z'
loop_
 _atom_site_type_symbol
 _atom_site_label
 _atom_site_symmetry_multiplicity
 _atom_site_fract_x
 _atom_site_fract_y
 _atom_site_fract_z
 _atom_site_occupancy
  Cs  Cs0  1  0.333333  0.666667  0.750000  1
  Cs  Cs1  1  0.666667  0.333333  0.250000  1
  Mg  Mg2  1  0.000000  0.000000  0.000000  1
  Mg  Mg3  1  0.000000  0.000000  0.500000  1
  I  I4  1  0.161802  0.838198  0.250000  1
  I  I5  1  0.323603  0.161802  0.750000  1
  I  I6  1  0.838198  0.676397  0.750000  1
  I  I7  1  0.161802  0.323603  0.250000  1
  I  I8  1  0.676397  0.838198  0.250000  1
  I  I9  1  0.838198  0.161802  0.750000  1
