# generated using pymatgen
data_MnAsRh
_symmetry_space_group_name_H-M   'P 1'
_cell_length_a   7.01386240
_cell_length_b   7.01386239
_cell_length_c   3.04455802
_cell_angle_alpha   90.00000000
_cell_angle_beta   90.00000000
_cell_angle_gamma   120.00000003
_symmetry_Int_Tables_number   1
_chemical_formula_structural   MnAsRh
_chemical_formula_sum   'Mn3 As3 Rh3'
_cell_volume   129.70877836
_cell_formula_units_Z   3
loop_
 _symmetry_equiv_pos_site_id
 _symmetry_equiv_pos_as_xyz
  1  'x, y, z'
loop_
 _atom_site_type_symbol
 _atom_site_label
 _atom_site_symmetry_multiplicity
 _atom_site_fract_x
 _atom_site_fract_y
 _atom_site_fract_z
 _atom_site_occupancy
  Mn  Mn0  1  0.297394  0.297394  0.000000  1
  Mn  Mn1  1  1.000000  0.702606  0.000000  1
  Mn  Mn2  1  0.702606  0.000000  0.000000  1
  As  As3  1  0.000000  0.000000  0.500000  1
  As  As4  1  0.333333  0.666667  0.000000  1
  As  As5  1  0.666667  0.333333  0.000000  1
  Rh  Rh6  1  0.362982  0.000000  0.500000  1
  Rh  Rh7  1  0.637018  0.637018  0.500000  1
  Rh  Rh8  1  1.000000  0.362982  0.500000  1
