# generated using pymatgen
data_GdGa
_symmetry_space_group_name_H-M   'P 1'
_cell_length_a   4.16828498
_cell_length_b   4.36253716
_cell_length_c   5.97537598
_cell_angle_alpha   111.41022291
_cell_angle_beta   90.00000000
_cell_angle_gamma   90.00000000
_symmetry_Int_Tables_number   1
_chemical_formula_structural   GdGa
_chemical_formula_sum   'Gd2 Ga2'
_cell_volume   101.15960433
_cell_formula_units_Z   2
loop_
 _symmetry_equiv_pos_site_id
 _symmetry_equiv_pos_as_xyz
  1  'x, y, z'
loop_
 _atom_site_type_symbol
 _atom_site_label
 _atom_site_symmetry_multiplicity
 _atom_site_fract_x
 _atom_site_fract_y
 _atom_site_fract_z
 _atom_site_occupancy
  Ga  Ga0  1  0.250000  0.573069  0.146137  1
  Ga  Ga1  1  0.750000  0.426931  0.853863  1
  Gd  Gd2  1  0.250000  0.859508  0.719016  1
  Gd  Gd3  1  0.750000  0.140492  0.280984  1
