# generated using pymatgen
data_SrSi
_symmetry_space_group_name_H-M   'P 1'
_cell_length_a   4.05183658
_cell_length_b   4.83504665
_cell_length_c   6.16229200
_cell_angle_alpha   113.09825573
_cell_angle_beta   90.00000000
_cell_angle_gamma   90.00000000
_symmetry_Int_Tables_number   1
_chemical_formula_structural   SrSi
_chemical_formula_sum   'Sr2 Si2'
_cell_volume   111.04629117
_cell_formula_units_Z   2
loop_
 _symmetry_equiv_pos_site_id
 _symmetry_equiv_pos_as_xyz
  1  'x, y, z'
loop_
 _atom_site_type_symbol
 _atom_site_label
 _atom_site_symmetry_multiplicity
 _atom_site_fract_x
 _atom_site_fract_y
 _atom_site_fract_z
 _atom_site_occupancy
  Si  Si0  1  0.250000  0.936112  0.872224  1
  Si  Si1  1  0.750000  0.063888  0.127776  1
  Sr  Sr2  1  0.250000  0.638947  0.277893  1
  Sr  Sr3  1  0.750000  0.361053  0.722107  1
