# generated using pymatgen
data_TiI3
_symmetry_space_group_name_H-M   'P 1'
_cell_length_a   6.48059339
_cell_length_b   7.61821107
_cell_length_c   13.15068707
_cell_angle_alpha   90.00000000
_cell_angle_beta   90.00000000
_cell_angle_gamma   90.00000000
_symmetry_Int_Tables_number   1
_chemical_formula_structural   TiI3
_chemical_formula_sum   'Ti4 I12'
_cell_volume   649.25636820
_cell_formula_units_Z   4
loop_
 _symmetry_equiv_pos_site_id
 _symmetry_equiv_pos_as_xyz
  1  'x, y, z'
loop_
 _atom_site_type_symbol
 _atom_site_label
 _atom_site_symmetry_multiplicity
 _atom_site_fract_x
 _atom_site_fract_y
 _atom_site_fract_z
 _atom_site_occupancy
  Ti  Ti0  1  0.973381  0.246518  0.750000  1
  Ti  Ti1  1  0.026619  0.753482  0.250000  1
  Ti  Ti2  1  0.473381  0.753482  0.250000  1
  Ti  Ti3  1  0.526619  0.246518  0.750000  1
  I  I4  1  0.750000  0.399909  0.903723  1
  I  I5  1  0.250000  0.539302  0.750000  1
  I  I6  1  0.250000  0.100702  0.896428  1
  I  I7  1  0.750000  0.940682  0.750000  1
  I  I8  1  0.250000  0.600091  0.403723  1
  I  I9  1  0.250000  0.059318  0.250000  1
  I  I10  1  0.250000  0.100702  0.603572  1
  I  I11  1  0.750000  0.899298  0.103572  1
  I  I12  1  0.750000  0.460698  0.250000  1
  I  I13  1  0.750000  0.399909  0.596277  1
  I  I14  1  0.750000  0.899298  0.396428  1
  I  I15  1  0.250000  0.600091  0.096277  1
