# generated using pymatgen
data_NdSi2Ru
_symmetry_space_group_name_H-M   'P 1'
_cell_length_a   4.08206401
_cell_length_b   4.50402195
_cell_length_c   8.31156438
_cell_angle_alpha   101.99987103
_cell_angle_beta   90.00000000
_cell_angle_gamma   90.00000000
_symmetry_Int_Tables_number   1
_chemical_formula_structural   NdSi2Ru
_chemical_formula_sum   'Nd2 Si4 Ru2'
_cell_volume   149.47469766
_cell_formula_units_Z   2
loop_
 _symmetry_equiv_pos_site_id
 _symmetry_equiv_pos_as_xyz
  1  'x, y, z'
loop_
 _atom_site_type_symbol
 _atom_site_label
 _atom_site_symmetry_multiplicity
 _atom_site_fract_x
 _atom_site_fract_y
 _atom_site_fract_z
 _atom_site_occupancy
  Si  Si0  1  0.250000  0.667128  0.491218  1
  Si  Si1  1  0.750000  0.332872  0.508782  1
  Si  Si2  1  0.750000  0.964017  0.908878  1
  Si  Si3  1  0.250000  0.035983  0.091122  1
  Ru  Ru4  1  0.750000  0.880195  0.612325  1
  Ru  Ru5  1  0.250000  0.119805  0.387675  1
  Nd  Nd6  1  0.250000  0.414245  0.799868  1
  Nd  Nd7  1  0.750000  0.585755  0.200132  1
