# generated using pymatgen
data_KMgCl3
_symmetry_space_group_name_H-M   'P 1'
_cell_length_a   7.02293868
_cell_length_b   7.08270941
_cell_length_c   10.03841801
_cell_angle_alpha   90.00000000
_cell_angle_beta   90.00000000
_cell_angle_gamma   90.00000000
_symmetry_Int_Tables_number   1
_chemical_formula_structural   KMgCl3
_chemical_formula_sum   'K4 Mg4 Cl12'
_cell_volume   499.32530565
_cell_formula_units_Z   4
loop_
 _symmetry_equiv_pos_site_id
 _symmetry_equiv_pos_as_xyz
  1  'x, y, z'
loop_
 _atom_site_type_symbol
 _atom_site_label
 _atom_site_symmetry_multiplicity
 _atom_site_fract_x
 _atom_site_fract_y
 _atom_site_fract_z
 _atom_site_occupancy
  K  K0  1  0.991196  0.030738  0.250000  1
  K  K1  1  0.491196  0.469262  0.750000  1
  K  K2  1  0.508804  0.530738  0.250000  1
  K  K3  1  0.008804  0.969262  0.750000  1
  Mg  Mg4  1  0.500000  0.000000  0.000000  1
  Mg  Mg5  1  0.000000  0.500000  0.000000  1
  Mg  Mg6  1  0.000000  0.500000  0.500000  1
  Mg  Mg7  1  0.500000  0.000000  0.500000  1
  Cl  Cl8  1  0.048502  0.492600  0.250000  1
  Cl  Cl9  1  0.548502  0.007400  0.750000  1
  Cl  Cl10  1  0.451498  0.992600  0.250000  1
  Cl  Cl11  1  0.951498  0.507400  0.750000  1
  Cl  Cl12  1  0.713355  0.286146  0.024611  1
  Cl  Cl13  1  0.213355  0.213854  0.975389  1
  Cl  Cl14  1  0.786645  0.786146  0.475389  1
  Cl  Cl15  1  0.286645  0.713854  0.524611  1
  Cl  Cl16  1  0.286645  0.713854  0.975389  1
  Cl  Cl17  1  0.786645  0.786146  0.024611  1
  Cl  Cl18  1  0.213355  0.213854  0.524611  1
  Cl  Cl19  1  0.713355  0.286146  0.475389  1
