# generated using pymatgen
data_LaSi2
_symmetry_space_group_name_H-M   'P 1'
_cell_length_a   4.34626102
_cell_length_b   4.34626103
_cell_length_c   7.56064817
_cell_angle_alpha   106.70394594
_cell_angle_beta   106.70394592
_cell_angle_gamma   89.99999996
_symmetry_Int_Tables_number   1
_chemical_formula_structural   LaSi2
_chemical_formula_sum   'La2 Si4'
_cell_volume   130.48920492
_cell_formula_units_Z   2
loop_
 _symmetry_equiv_pos_site_id
 _symmetry_equiv_pos_as_xyz
  1  'x, y, z'
loop_
 _atom_site_type_symbol
 _atom_site_label
 _atom_site_symmetry_multiplicity
 _atom_site_fract_x
 _atom_site_fract_y
 _atom_site_fract_z
 _atom_site_occupancy
  Si  Si0  1  0.709944  0.959944  0.919888  1
  Si  Si1  1  0.459944  0.209944  0.419888  1
  Si  Si2  1  0.540056  0.790056  0.580112  1
  Si  Si3  1  0.290056  0.040056  0.080112  1
  La  La4  1  0.875000  0.625000  0.250000  1
  La  La5  1  0.125000  0.375000  0.750000  1
