# generated using pymatgen
data_Sr(AlPb)2
_symmetry_space_group_name_H-M   'P 1'
_cell_length_a   4.55520129
_cell_length_b   4.55520129
_cell_length_c   7.76916194
_cell_angle_alpha   107.04718272
_cell_angle_beta   107.04718278
_cell_angle_gamma   89.99999998
_symmetry_Int_Tables_number   1
_chemical_formula_structural   Sr(AlPb)2
_chemical_formula_sum   'Sr1 Al2 Pb2'
_cell_volume   146.70157189
_cell_formula_units_Z   1
loop_
 _symmetry_equiv_pos_site_id
 _symmetry_equiv_pos_as_xyz
  1  'x, y, z'
loop_
 _atom_site_type_symbol
 _atom_site_label
 _atom_site_symmetry_multiplicity
 _atom_site_fract_x
 _atom_site_fract_y
 _atom_site_fract_z
 _atom_site_occupancy
  Al  Al0  1  0.250000  0.750000  0.500000  1
  Al  Al1  1  0.750000  0.250000  0.500000  1
  Sr  Sr2  1  0.000000  0.000000  0.000000  1
  Pb  Pb3  1  0.378620  0.378620  0.757239  1
  Pb  Pb4  1  0.621380  0.621380  0.242761  1
