# generated using pymatgen
data_Sb3Rh
_symmetry_space_group_name_H-M   'P 1'
_cell_length_a   8.12146490
_cell_length_b   8.12146490
_cell_length_c   8.12146490
_cell_angle_alpha   109.47122066
_cell_angle_beta   109.47122065
_cell_angle_gamma   109.47122062
_symmetry_Int_Tables_number   1
_chemical_formula_structural   Sb3Rh
_chemical_formula_sum   'Sb12 Rh4'
_cell_volume   412.36445621
_cell_formula_units_Z   4
loop_
 _symmetry_equiv_pos_site_id
 _symmetry_equiv_pos_as_xyz
  1  'x, y, z'
loop_
 _atom_site_type_symbol
 _atom_site_label
 _atom_site_symmetry_multiplicity
 _atom_site_fract_x
 _atom_site_fract_y
 _atom_site_fract_z
 _atom_site_occupancy
  Rh  Rh0  1  0.500000  0.500000  0.500000  1
  Rh  Rh1  1  0.000000  0.500000  0.000000  1
  Rh  Rh2  1  0.000000  0.000000  0.500000  1
  Rh  Rh3  1  0.500000  0.000000  0.000000  1
  Sb  Sb4  1  0.494547  0.154901  0.339647  1
  Sb  Sb5  1  0.154901  0.660353  0.815254  1
  Sb  Sb6  1  0.339647  0.184746  0.845099  1
  Sb  Sb7  1  0.845099  0.660353  0.505453  1
  Sb  Sb8  1  0.660353  0.815254  0.154901  1
  Sb  Sb9  1  0.845099  0.339647  0.184746  1
  Sb  Sb10  1  0.660353  0.505453  0.845099  1
  Sb  Sb11  1  0.339647  0.494547  0.154901  1
  Sb  Sb12  1  0.154901  0.339647  0.494547  1
  Sb  Sb13  1  0.815254  0.154901  0.660353  1
  Sb  Sb14  1  0.184746  0.845099  0.339647  1
  Sb  Sb15  1  0.505453  0.845099  0.660353  1
