# generated using pymatgen
data_CeS
_symmetry_space_group_name_H-M   'P 1'
_cell_length_a   3.96157783
_cell_length_b   3.96157783
_cell_length_c   10.60297940
_cell_angle_alpha   90.00000000
_cell_angle_beta   90.00000000
_cell_angle_gamma   90.16198225
_symmetry_Int_Tables_number   1
_chemical_formula_structural   CeS
_chemical_formula_sum   'Ce2 S2'
_cell_volume   166.40354237
_cell_formula_units_Z   2
loop_
 _symmetry_equiv_pos_site_id
 _symmetry_equiv_pos_as_xyz
  1  'x, y, z'
loop_
 _atom_site_type_symbol
 _atom_site_label
 _atom_site_symmetry_multiplicity
 _atom_site_fract_x
 _atom_site_fract_y
 _atom_site_fract_z
 _atom_site_occupancy
  S  S0  1  0.744001  0.755999  0.348619  1
  S  S1  1  0.244001  0.255999  0.651381  1
  Ce  Ce2  1  0.243999  0.256001  0.382032  1
  Ce  Ce3  1  0.743999  0.756001  0.617968  1
