# generated using pymatgen
data_YCl3
_symmetry_space_group_name_H-M   'P 1'
_cell_length_a   7.06619995
_cell_length_b   6.99301936
_cell_length_c   6.99301936
_cell_angle_alpha   119.85277052
_cell_angle_beta   99.76538708
_cell_angle_gamma   99.76538712
_symmetry_Int_Tables_number   1
_chemical_formula_structural   YCl3
_chemical_formula_sum   'Y2 Cl6'
_cell_volume   282.01136691
_cell_formula_units_Z   2
loop_
 _symmetry_equiv_pos_site_id
 _symmetry_equiv_pos_as_xyz
  1  'x, y, z'
loop_
 _atom_site_type_symbol
 _atom_site_label
 _atom_site_symmetry_multiplicity
 _atom_site_fract_x
 _atom_site_fract_y
 _atom_site_fract_z
 _atom_site_occupancy
  Cl  Cl0  1  0.224115  0.949738  0.576527  1
  Cl  Cl1  1  0.775885  0.423473  0.050262  1
  Cl  Cl2  1  0.770897  0.801418  0.801418  1
  Cl  Cl3  1  0.229103  0.198582  0.198582  1
  Cl  Cl4  1  0.224115  0.576527  0.949738  1
  Cl  Cl5  1  0.775885  0.050262  0.423473  1
  Y  Y6  1  0.000000  0.166513  0.833488  1
  Y  Y7  1  0.000000  0.833488  0.166513  1
