# generated using pymatgen
data_NdC2
_symmetry_space_group_name_H-M   'P 1'
_cell_length_a   3.84279401
_cell_length_b   3.84279401
_cell_length_c   4.22469508
_cell_angle_alpha   117.05215315
_cell_angle_beta   117.05215318
_cell_angle_gamma   90.00000002
_symmetry_Int_Tables_number   1
_chemical_formula_structural   NdC2
_chemical_formula_sum   'Nd1 C2'
_cell_volume   47.76983866
_cell_formula_units_Z   1
loop_
 _symmetry_equiv_pos_site_id
 _symmetry_equiv_pos_as_xyz
  1  'x, y, z'
loop_
 _atom_site_type_symbol
 _atom_site_label
 _atom_site_symmetry_multiplicity
 _atom_site_fract_x
 _atom_site_fract_y
 _atom_site_fract_z
 _atom_site_occupancy
  C  C0  1  0.600339  0.600339  0.200678  1
  C  C1  1  0.399661  0.399661  0.799322  1
  Nd  Nd2  1  0.000000  0.000000  0.000000  1
