# generated using pymatgen
data_ScCd3
_symmetry_space_group_name_H-M   'P 1'
_cell_length_a   6.41330984
_cell_length_b   6.41330984
_cell_length_c   4.90963624
_cell_angle_alpha   90.00000000
_cell_angle_beta   90.00000000
_cell_angle_gamma   120.00000002
_symmetry_Int_Tables_number   1
_chemical_formula_structural   ScCd3
_chemical_formula_sum   'Sc2 Cd6'
_cell_volume   174.88171014
_cell_formula_units_Z   2
loop_
 _symmetry_equiv_pos_site_id
 _symmetry_equiv_pos_as_xyz
  1  'x, y, z'
loop_
 _atom_site_type_symbol
 _atom_site_label
 _atom_site_symmetry_multiplicity
 _atom_site_fract_x
 _atom_site_fract_y
 _atom_site_fract_z
 _atom_site_occupancy
  Sc  Sc0  1  0.666667  0.333333  0.750000  1
  Sc  Sc1  1  0.333333  0.666667  0.250000  1
  Cd  Cd2  1  0.666191  0.833096  0.750000  1
  Cd  Cd3  1  0.333809  0.166904  0.250000  1
  Cd  Cd4  1  0.833096  0.166904  0.250000  1
  Cd  Cd5  1  0.166904  0.333809  0.750000  1
  Cd  Cd6  1  0.166904  0.833096  0.750000  1
  Cd  Cd7  1  0.833096  0.666191  0.250000  1
