# generated using pymatgen
data_MgGeO3
_symmetry_space_group_name_H-M   'P 1'
_cell_length_a   2.85169505
_cell_length_b   4.95123388
_cell_length_c   7.02560584
_cell_angle_alpha   90.00000000
_cell_angle_beta   90.00000000
_cell_angle_gamma   106.73695367
_symmetry_Int_Tables_number   1
_chemical_formula_structural   MgGeO3
_chemical_formula_sum   'Mg2 Ge2 O6'
_cell_volume   94.99509957
_cell_formula_units_Z   2
loop_
 _symmetry_equiv_pos_site_id
 _symmetry_equiv_pos_as_xyz
  1  'x, y, z'
loop_
 _atom_site_type_symbol
 _atom_site_label
 _atom_site_symmetry_multiplicity
 _atom_site_fract_x
 _atom_site_fract_y
 _atom_site_fract_z
 _atom_site_occupancy
  O  O0  1  0.631255  0.262510  0.940533  1
  O  O1  1  0.368745  0.737490  0.059467  1
  O  O2  1  0.368745  0.737490  0.440533  1
  O  O3  1  0.631255  0.262510  0.559467  1
  O  O4  1  0.915902  0.831804  0.750000  1
  O  O5  1  0.084098  0.168196  0.250000  1
  Mg  Mg6  1  0.739088  0.478176  0.250000  1
  Mg  Mg7  1  0.260912  0.521824  0.750000  1
  Ge  Ge8  1  0.000000  0.000000  0.500000  1
  Ge  Ge9  1  0.000000  0.000000  0.000000  1
