# generated using pymatgen
data_Li2GaIr
_symmetry_space_group_name_H-M   'P 1'
_cell_length_a   4.24289014
_cell_length_b   4.24289012
_cell_length_c   4.24289037
_cell_angle_alpha   59.99999812
_cell_angle_beta   59.99999826
_cell_angle_gamma   59.99999424
_symmetry_Int_Tables_number   1
_chemical_formula_structural   Li2GaIr
_chemical_formula_sum   'Li2 Ga1 Ir1'
_cell_volume   54.00952440
_cell_formula_units_Z   1
loop_
 _symmetry_equiv_pos_site_id
 _symmetry_equiv_pos_as_xyz
  1  'x, y, z'
loop_
 _atom_site_type_symbol
 _atom_site_label
 _atom_site_symmetry_multiplicity
 _atom_site_fract_x
 _atom_site_fract_y
 _atom_site_fract_z
 _atom_site_occupancy
  Li  Li0  1  0.500000  0.500000  0.500000  1
  Li  Li1  1  0.250000  0.250000  0.250000  1
  Ir  Ir2  1  0.000000  0.000000  0.000000  1
  Ga  Ga3  1  0.750000  0.750000  0.750000  1
