# generated using pymatgen
data_SmScO3
_symmetry_space_group_name_H-M   'P 1'
_cell_length_a   5.55632373
_cell_length_b   5.82408085
_cell_length_c   8.01196083
_cell_angle_alpha   90.00000000
_cell_angle_beta   90.00000000
_cell_angle_gamma   90.00000000
_symmetry_Int_Tables_number   1
_chemical_formula_structural   SmScO3
_chemical_formula_sum   'Sm4 Sc4 O12'
_cell_volume   259.27088724
_cell_formula_units_Z   4
loop_
 _symmetry_equiv_pos_site_id
 _symmetry_equiv_pos_as_xyz
  1  'x, y, z'
loop_
 _atom_site_type_symbol
 _atom_site_label
 _atom_site_symmetry_multiplicity
 _atom_site_fract_x
 _atom_site_fract_y
 _atom_site_fract_z
 _atom_site_occupancy
  O  O0  1  0.117853  0.548353  0.750000  1
  O  O1  1  0.617853  0.951647  0.250000  1
  O  O2  1  0.193558  0.804772  0.438877  1
  O  O3  1  0.193558  0.804772  0.061123  1
  O  O4  1  0.306442  0.304772  0.061123  1
  O  O5  1  0.306442  0.304772  0.438877  1
  O  O6  1  0.693558  0.695228  0.561123  1
  O  O7  1  0.693558  0.695228  0.938877  1
  O  O8  1  0.806442  0.195228  0.938877  1
  O  O9  1  0.806442  0.195228  0.561123  1
  O  O10  1  0.882147  0.451647  0.250000  1
  O  O11  1  0.382147  0.048353  0.750000  1
  Sc  Sc12  1  0.500000  0.000000  0.500000  1
  Sc  Sc13  1  0.000000  0.500000  0.500000  1
  Sc  Sc14  1  0.500000  0.000000  0.000000  1
  Sc  Sc15  1  0.000000  0.500000  0.000000  1
  Sm  Sm16  1  0.016237  0.059937  0.250000  1
  Sm  Sm17  1  0.483763  0.559937  0.250000  1
  Sm  Sm18  1  0.516237  0.440063  0.750000  1
  Sm  Sm19  1  0.983763  0.940063  0.750000  1
