# generated using pymatgen
data_CuCl4
_symmetry_space_group_name_H-M   'P 1'
_cell_length_a   6.96657137
_cell_length_b   9.35447714
_cell_length_c   6.28764629
_cell_angle_alpha   28.50878771
_cell_angle_beta   56.35890531
_cell_angle_gamma   41.86398023
_symmetry_Int_Tables_number   1
_chemical_formula_structural   CuCl4
_chemical_formula_sum   'Cu1 Cl4'
_cell_volume   123.86099023
_cell_formula_units_Z   1
loop_
 _symmetry_equiv_pos_site_id
 _symmetry_equiv_pos_as_xyz
  1  'x, y, z'
loop_
 _atom_site_type_symbol
 _atom_site_label
 _atom_site_symmetry_multiplicity
 _atom_site_fract_x
 _atom_site_fract_y
 _atom_site_fract_z
 _atom_site_occupancy
  Cl  Cl0  1  0.132621  0.995605  0.243550  1
  Cl  Cl1  1  0.627892  0.004869  0.234477  1
  Cl  Cl2  1  0.363727  0.499784  0.260393  1
  Cl  Cl3  1  0.876313  0.499784  0.260393  1
  Cu  Cu4  1  0.249448  0.499959  0.001186  1
