# generated using pymatgen
data_Lu2NiSn6
_symmetry_space_group_name_H-M   'P 1'
_cell_length_a   4.34948269
_cell_length_b   4.41493373
_cell_length_c   11.39820247
_cell_angle_alpha   90.00000000
_cell_angle_beta   100.99929221
_cell_angle_gamma   90.00000000
_symmetry_Int_Tables_number   1
_chemical_formula_structural   Lu2NiSn6
_chemical_formula_sum   'Lu2 Ni1 Sn6'
_cell_volume   214.85515715
_cell_formula_units_Z   1
loop_
 _symmetry_equiv_pos_site_id
 _symmetry_equiv_pos_as_xyz
  1  'x, y, z'
loop_
 _atom_site_type_symbol
 _atom_site_label
 _atom_site_symmetry_multiplicity
 _atom_site_fract_x
 _atom_site_fract_y
 _atom_site_fract_z
 _atom_site_occupancy
  Ni  Ni0  1  0.500000  0.500000  0.000000  1
  Sn  Sn1  1  0.703949  0.500000  0.407898  1
  Sn  Sn2  1  0.570665  0.000000  0.141331  1
  Sn  Sn3  1  0.429335  0.000000  0.858669  1
  Sn  Sn4  1  0.928592  0.500000  0.857184  1
  Sn  Sn5  1  0.071408  0.500000  0.142816  1
  Sn  Sn6  1  0.296051  0.500000  0.592102  1
  Lu  Lu7  1  0.178701  0.000000  0.357401  1
  Lu  Lu8  1  0.821299  0.000000  0.642599  1
