# generated using pymatgen
data_CeAl4Ni
_symmetry_space_group_name_H-M   'P 1'
_cell_length_a   4.12388623
_cell_length_b   6.59695469
_cell_length_c   8.07626110
_cell_angle_alpha   90.00000000
_cell_angle_beta   104.79190819
_cell_angle_gamma   90.00000000
_symmetry_Int_Tables_number   1
_chemical_formula_structural   CeAl4Ni
_chemical_formula_sum   'Ce2 Al8 Ni2'
_cell_volume   212.43392631
_cell_formula_units_Z   2
loop_
 _symmetry_equiv_pos_site_id
 _symmetry_equiv_pos_as_xyz
  1  'x, y, z'
loop_
 _atom_site_type_symbol
 _atom_site_label
 _atom_site_symmetry_multiplicity
 _atom_site_fract_x
 _atom_site_fract_y
 _atom_site_fract_z
 _atom_site_occupancy
  Al  Al0  1  0.500000  0.000000  0.000000  1
  Al  Al1  1  0.500000  0.500000  0.000000  1
  Al  Al2  1  0.077359  0.250000  0.154718  1
  Al  Al3  1  0.922641  0.750000  0.845282  1
  Al  Al4  1  0.689141  0.052396  0.378283  1
  Al  Al5  1  0.310859  0.947604  0.621717  1
  Al  Al6  1  0.310859  0.552396  0.621717  1
  Al  Al7  1  0.689141  0.447604  0.378283  1
  Ce  Ce8  1  0.885460  0.250000  0.770919  1
  Ce  Ce9  1  0.114540  0.750000  0.229081  1
  Ni  Ni10  1  0.225891  0.250000  0.451782  1
  Ni  Ni11  1  0.774109  0.750000  0.548218  1
