# generated using pymatgen
data_ZnAgAs
_symmetry_space_group_name_H-M   'P 1'
_cell_length_a   4.41275900
_cell_length_b   4.41275970
_cell_length_c   4.41275975
_cell_angle_alpha   59.99999818
_cell_angle_beta   59.99999702
_cell_angle_gamma   59.99999664
_symmetry_Int_Tables_number   1
_chemical_formula_structural   ZnAgAs
_chemical_formula_sum   'Zn1 Ag1 As1'
_cell_volume   60.75971762
_cell_formula_units_Z   1
loop_
 _symmetry_equiv_pos_site_id
 _symmetry_equiv_pos_as_xyz
  1  'x, y, z'
loop_
 _atom_site_type_symbol
 _atom_site_label
 _atom_site_symmetry_multiplicity
 _atom_site_fract_x
 _atom_site_fract_y
 _atom_site_fract_z
 _atom_site_occupancy
  Ag  Ag0  1  0.750000  0.750000  0.750000  1
  As  As1  1  0.000000  0.000000  0.000000  1
  Zn  Zn2  1  0.250000  0.250000  0.250000  1
