# generated using pymatgen
data_Re2NiO8
_symmetry_space_group_name_H-M   'P 1'
_cell_length_a   5.75577119
_cell_length_b   5.75577119
_cell_length_c   6.56995618
_cell_angle_alpha   90.00000000
_cell_angle_beta   90.00000000
_cell_angle_gamma   120.00000003
_symmetry_Int_Tables_number   1
_chemical_formula_structural   Re2NiO8
_chemical_formula_sum   'Re2 Ni1 O8'
_cell_volume   188.49513548
_cell_formula_units_Z   1
loop_
 _symmetry_equiv_pos_site_id
 _symmetry_equiv_pos_as_xyz
  1  'x, y, z'
loop_
 _atom_site_type_symbol
 _atom_site_label
 _atom_site_symmetry_multiplicity
 _atom_site_fract_x
 _atom_site_fract_y
 _atom_site_fract_z
 _atom_site_occupancy
  O  O0  1  0.666666  0.333333  0.467024  1
  O  O1  1  0.333333  0.666666  0.532976  1
  O  O2  1  0.816359  0.151106  0.819423  1
  O  O3  1  0.151105  0.334746  0.180577  1
  O  O4  1  0.665254  0.816360  0.180577  1
  O  O5  1  0.334745  0.183640  0.819423  1
  O  O6  1  0.848894  0.665253  0.819423  1
  O  O7  1  0.183640  0.848893  0.180577  1
  Ni  Ni8  1  0.000000  0.000000  0.000000  1
  Re  Re9  1  0.333333  0.666666  0.268932  1
  Re  Re10  1  0.666666  0.333333  0.731068  1
