# generated using pymatgen
data_AlTlF4
_symmetry_space_group_name_H-M   'P 1'
_cell_length_a   5.17264355
_cell_length_b   5.20513247
_cell_length_c   7.42035646
_cell_angle_alpha   110.16348883
_cell_angle_beta   110.39829424
_cell_angle_gamma   90.00000001
_symmetry_Int_Tables_number   1
_chemical_formula_structural   AlTlF4
_chemical_formula_sum   'Al2 Tl2 F8'
_cell_volume   174.13650994
_cell_formula_units_Z   2
loop_
 _symmetry_equiv_pos_site_id
 _symmetry_equiv_pos_as_xyz
  1  'x, y, z'
loop_
 _atom_site_type_symbol
 _atom_site_label
 _atom_site_symmetry_multiplicity
 _atom_site_fract_x
 _atom_site_fract_y
 _atom_site_fract_z
 _atom_site_occupancy
  F  F0  1  0.692834  0.640123  0.273183  1
  F  F1  1  0.919652  0.859877  0.726817  1
  F  F2  1  0.307166  0.359877  0.726817  1
  F  F3  1  0.080348  0.140123  0.273183  1
  F  F4  1  0.242439  0.742707  0.037452  1
  F  F5  1  0.704988  0.757293  0.962548  1
  F  F6  1  0.757561  0.257293  0.962548  1
  F  F7  1  0.295012  0.242707  0.037452  1
  Al  Al8  1  0.500000  0.500000  0.000000  1
  Al  Al9  1  0.000000  0.000000  0.000000  1
  Tl  Tl10  1  0.743385  0.250000  0.500000  1
  Tl  Tl11  1  0.256615  0.750000  0.500000  1
