# generated using pymatgen
data_Si2CN4
_symmetry_space_group_name_H-M   'P 1'
_cell_length_a   4.88863713
_cell_length_b   5.52074539
_cell_length_c   7.41905989
_cell_angle_alpha   90.00000000
_cell_angle_beta   109.23629011
_cell_angle_gamma   90.00000000
_symmetry_Int_Tables_number   1
_chemical_formula_structural   Si2CN4
_chemical_formula_sum   'Si4 C2 N8'
_cell_volume   189.05302071
_cell_formula_units_Z   2
loop_
 _symmetry_equiv_pos_site_id
 _symmetry_equiv_pos_as_xyz
  1  'x, y, z'
loop_
 _atom_site_type_symbol
 _atom_site_label
 _atom_site_symmetry_multiplicity
 _atom_site_fract_x
 _atom_site_fract_y
 _atom_site_fract_z
 _atom_site_occupancy
  C  C0  1  0.483641  0.500000  0.000000  1
  C  C1  1  0.983641  0.000000  0.000000  1
  N  N2  1  0.403952  0.530788  0.828851  1
  N  N3  1  0.575101  0.469212  0.171149  1
  N  N4  1  0.361148  0.873936  0.543160  1
  N  N5  1  0.817988  0.126064  0.456840  1
  N  N6  1  0.861148  0.626064  0.543160  1
  N  N7  1  0.317988  0.373936  0.456840  1
  N  N8  1  0.075101  0.030788  0.171149  1
  N  N9  1  0.903952  0.969212  0.828851  1
  Si  Si10  1  0.232693  0.597401  0.595215  1
  Si  Si11  1  0.637477  0.402599  0.404785  1
  Si  Si12  1  0.732693  0.902599  0.595215  1
  Si  Si13  1  0.137477  0.097401  0.404785  1
