# generated using pymatgen
data_LiBH4
_symmetry_space_group_name_H-M   'P 1'
_cell_length_a   4.37184347
_cell_length_b   6.78039398
_cell_length_c   7.00574554
_cell_angle_alpha   90.00000000
_cell_angle_beta   90.00000000
_cell_angle_gamma   90.00000000
_symmetry_Int_Tables_number   1
_chemical_formula_structural   LiBH4
_chemical_formula_sum   'Li4 B4 H16'
_cell_volume   207.67006203
_cell_formula_units_Z   4
loop_
 _symmetry_equiv_pos_site_id
 _symmetry_equiv_pos_as_xyz
  1  'x, y, z'
loop_
 _atom_site_type_symbol
 _atom_site_label
 _atom_site_symmetry_multiplicity
 _atom_site_fract_x
 _atom_site_fract_y
 _atom_site_fract_z
 _atom_site_occupancy
  H  H0  1  0.524723  0.926849  0.302835  1
  H  H1  1  0.024723  0.073151  0.697165  1
  H  H2  1  0.475277  0.426849  0.197165  1
  H  H3  1  0.975277  0.573151  0.802835  1
  H  H4  1  0.475277  0.073151  0.697165  1
  H  H5  1  0.975277  0.926849  0.302835  1
  H  H6  1  0.524723  0.573151  0.802835  1
  H  H7  1  0.024723  0.426849  0.197165  1
  H  H8  1  0.250000  0.927953  0.905298  1
  H  H9  1  0.750000  0.072047  0.094702  1
  H  H10  1  0.750000  0.427953  0.594702  1
  H  H11  1  0.250000  0.572047  0.405298  1
  H  H12  1  0.250000  0.275560  0.397718  1
  H  H13  1  0.750000  0.724440  0.602282  1
  H  H14  1  0.750000  0.775560  0.102282  1
  H  H15  1  0.250000  0.224440  0.897718  1
  Li  Li16  1  0.250000  0.107767  0.159709  1
  Li  Li17  1  0.750000  0.892233  0.840291  1
  Li  Li18  1  0.750000  0.607767  0.340291  1
  Li  Li19  1  0.250000  0.392233  0.659709  1
  B  B20  1  0.250000  0.426910  0.300884  1
  B  B21  1  0.750000  0.573090  0.699116  1
  B  B22  1  0.750000  0.926910  0.199116  1
  B  B23  1  0.250000  0.073090  0.800884  1
