# generated using pymatgen
data_LaGaO3
_symmetry_space_group_name_H-M   'P 1'
_cell_length_a   5.52854423
_cell_length_b   5.52854422
_cell_length_c   5.52854423
_cell_angle_alpha   60.79394003
_cell_angle_beta   60.79394001
_cell_angle_gamma   60.79394005
_symmetry_Int_Tables_number   1
_chemical_formula_structural   LaGaO3
_chemical_formula_sum   'La2 Ga2 O6'
_cell_volume   121.62587272
_cell_formula_units_Z   2
loop_
 _symmetry_equiv_pos_site_id
 _symmetry_equiv_pos_as_xyz
  1  'x, y, z'
loop_
 _atom_site_type_symbol
 _atom_site_label
 _atom_site_symmetry_multiplicity
 _atom_site_fract_x
 _atom_site_fract_y
 _atom_site_fract_z
 _atom_site_occupancy
  O  O0  1  0.319122  0.750000  0.180878  1
  O  O1  1  0.750000  0.180878  0.319122  1
  O  O2  1  0.180878  0.319122  0.750000  1
  O  O3  1  0.680879  0.250000  0.819121  1
  O  O4  1  0.819121  0.680879  0.250000  1
  O  O5  1  0.250000  0.819121  0.680879  1
  Ga  Ga6  1  0.500000  0.500000  0.500000  1
  Ga  Ga7  1  0.000000  0.000000  0.000000  1
  La  La8  1  0.750000  0.750000  0.750000  1
  La  La9  1  0.250000  0.250000  0.250000  1
