# generated using pymatgen
data_Al2NiO4
_symmetry_space_group_name_H-M   'P 1'
_cell_length_a   5.73094330
_cell_length_b   5.73094322
_cell_length_c   5.79015745
_cell_angle_alpha   59.65760903
_cell_angle_beta   59.65760957
_cell_angle_gamma   59.35301829
_symmetry_Int_Tables_number   1
_chemical_formula_structural   Al2NiO4
_chemical_formula_sum   'Al4 Ni2 O8'
_cell_volume   133.11099360
_cell_formula_units_Z   2
loop_
 _symmetry_equiv_pos_site_id
 _symmetry_equiv_pos_as_xyz
  1  'x, y, z'
loop_
 _atom_site_type_symbol
 _atom_site_label
 _atom_site_symmetry_multiplicity
 _atom_site_fract_x
 _atom_site_fract_y
 _atom_site_fract_z
 _atom_site_occupancy
  Al  Al0  1  0.132314  0.132314  0.117686  1
  Al  Al1  1  0.500000  0.500000  0.000000  1
  Al  Al2  1  0.500000  0.500000  0.500000  1
  Al  Al3  1  0.867686  0.867686  0.882314  1
  Ni  Ni4  1  0.500000  0.000000  0.500000  1
  Ni  Ni5  1  0.000000  0.500000  0.500000  1
  O  O6  1  0.265074  0.265074  0.232608  1
  O  O7  1  0.270293  0.738092  0.245807  1
  O  O8  1  0.265074  0.265074  0.737243  1
  O  O9  1  0.738092  0.270293  0.245807  1
  O  O10  1  0.261908  0.729707  0.754193  1
  O  O11  1  0.729707  0.261908  0.754193  1
  O  O12  1  0.734926  0.734926  0.262757  1
  O  O13  1  0.734926  0.734926  0.767392  1
