# generated using pymatgen
data_DyScO3
_symmetry_space_group_name_H-M   'P 1'
_cell_length_a   5.46436933
_cell_length_b   5.76174254
_cell_length_c   7.93365548
_cell_angle_alpha   90.00000000
_cell_angle_beta   90.00000000
_cell_angle_gamma   90.00000000
_symmetry_Int_Tables_number   1
_chemical_formula_structural   DyScO3
_chemical_formula_sum   'Dy4 Sc4 O12'
_cell_volume   249.78550373
_cell_formula_units_Z   4
loop_
 _symmetry_equiv_pos_site_id
 _symmetry_equiv_pos_as_xyz
  1  'x, y, z'
loop_
 _atom_site_type_symbol
 _atom_site_label
 _atom_site_symmetry_multiplicity
 _atom_site_fract_x
 _atom_site_fract_y
 _atom_site_fract_z
 _atom_site_occupancy
  Dy  Dy0  1  0.017007  0.062334  0.250000  1
  Dy  Dy1  1  0.482993  0.562334  0.250000  1
  Dy  Dy2  1  0.517007  0.437666  0.750000  1
  Dy  Dy3  1  0.982993  0.937666  0.750000  1
  O  O4  1  0.129417  0.557940  0.750000  1
  O  O5  1  0.629417  0.942060  0.250000  1
  O  O6  1  0.187831  0.809480  0.433669  1
  O  O7  1  0.187831  0.809480  0.066331  1
  O  O8  1  0.312169  0.309480  0.066331  1
  O  O9  1  0.312169  0.309480  0.433669  1
  O  O10  1  0.687831  0.690520  0.566331  1
  O  O11  1  0.687831  0.690520  0.933669  1
  O  O12  1  0.812169  0.190520  0.933669  1
  O  O13  1  0.812169  0.190520  0.566331  1
  O  O14  1  0.870583  0.442060  0.250000  1
  O  O15  1  0.370583  0.057940  0.750000  1
  Sc  Sc16  1  0.500000  0.000000  0.500000  1
  Sc  Sc17  1  0.000000  0.500000  0.500000  1
  Sc  Sc18  1  0.500000  0.000000  0.000000  1
  Sc  Sc19  1  0.000000  0.500000  0.000000  1
