# generated using pymatgen
data_CaCO3
_symmetry_space_group_name_H-M   'P 1'
_cell_length_a   4.34300131
_cell_length_b   5.13917373
_cell_length_c   4.96118165
_cell_angle_alpha   90.00000000
_cell_angle_beta   90.00000000
_cell_angle_gamma   90.00000000
_symmetry_Int_Tables_number   1
_chemical_formula_structural   CaCO3
_chemical_formula_sum   'Ca2 C2 O6'
_cell_volume   110.73078744
_cell_formula_units_Z   2
loop_
 _symmetry_equiv_pos_site_id
 _symmetry_equiv_pos_as_xyz
  1  'x, y, z'
loop_
 _atom_site_type_symbol
 _atom_site_label
 _atom_site_symmetry_multiplicity
 _atom_site_fract_x
 _atom_site_fract_y
 _atom_site_fract_z
 _atom_site_occupancy
  C  C0  1  0.010247  0.750000  0.750000  1
  C  C1  1  0.989753  0.250000  0.250000  1
  O  O2  1  0.869769  0.750000  0.521027  1
  O  O3  1  0.869769  0.750000  0.978973  1
  O  O4  1  0.687601  0.250000  0.250000  1
  O  O5  1  0.312399  0.750000  0.750000  1
  O  O6  1  0.130231  0.250000  0.478973  1
  O  O7  1  0.130231  0.250000  0.021027  1
  Ca  Ca8  1  0.391815  0.750000  0.250000  1
  Ca  Ca9  1  0.608185  0.250000  0.750000  1
