# generated using pymatgen
data_BaLiPrTeO6
_symmetry_space_group_name_H-M   'P 1'
_cell_length_a   5.70468103
_cell_length_b   5.70468154
_cell_length_c   5.70468161
_cell_angle_alpha   59.99999508
_cell_angle_beta   59.99999749
_cell_angle_gamma   59.99999710
_symmetry_Int_Tables_number   1
_chemical_formula_structural   BaLiPrTeO6
_chemical_formula_sum   'Ba1 Li1 Pr1 Te1 O6'
_cell_volume   131.27413046
_cell_formula_units_Z   1
loop_
 _symmetry_equiv_pos_site_id
 _symmetry_equiv_pos_as_xyz
  1  'x, y, z'
loop_
 _atom_site_type_symbol
 _atom_site_label
 _atom_site_symmetry_multiplicity
 _atom_site_fract_x
 _atom_site_fract_y
 _atom_site_fract_z
 _atom_site_occupancy
  Ba  Ba0  1  0.750000  0.750000  0.750000  1
  Li  Li1  1  0.000000  0.000000  0.000000  1
  O  O2  1  0.259422  0.259422  0.740578  1
  O  O3  1  0.259422  0.740578  0.259422  1
  O  O4  1  0.740578  0.259422  0.259422  1
  O  O5  1  0.259422  0.740578  0.740578  1
  O  O6  1  0.740578  0.259422  0.740578  1
  O  O7  1  0.740578  0.740578  0.259422  1
  Pr  Pr8  1  0.250000  0.250000  0.250000  1
  Te  Te9  1  0.500000  0.500000  0.500000  1
