# generated using pymatgen
data_MgSiO3
_symmetry_space_group_name_H-M   'P 1'
_cell_length_a   2.71518337
_cell_length_b   4.80008242
_cell_length_c   6.72652268
_cell_angle_alpha   90.00000000
_cell_angle_beta   90.00000000
_cell_angle_gamma   106.42898629
_symmetry_Int_Tables_number   1
_chemical_formula_structural   MgSiO3
_chemical_formula_sum   'Mg2 Si2 O6'
_cell_volume   84.08809547
_cell_formula_units_Z   2
loop_
 _symmetry_equiv_pos_site_id
 _symmetry_equiv_pos_as_xyz
  1  'x, y, z'
loop_
 _atom_site_type_symbol
 _atom_site_label
 _atom_site_symmetry_multiplicity
 _atom_site_fract_x
 _atom_site_fract_y
 _atom_site_fract_z
 _atom_site_occupancy
  O  O0  1  0.626072  0.252145  0.944717  1
  O  O1  1  0.373928  0.747855  0.055283  1
  O  O2  1  0.373928  0.747855  0.444717  1
  O  O3  1  0.626072  0.252145  0.555283  1
  O  O4  1  0.927195  0.854391  0.750000  1
  O  O5  1  0.072805  0.145609  0.250000  1
  Mg  Mg6  1  0.260662  0.521324  0.750000  1
  Mg  Mg7  1  0.739338  0.478676  0.250000  1
  Si  Si8  1  0.000000  0.000000  0.000000  1
  Si  Si9  1  0.000000  0.000000  0.500000  1
