# generated using pymatgen
data_TbZrSb
_symmetry_space_group_name_H-M   'P 1'
_cell_length_a   4.28583338
_cell_length_b   4.28583338
_cell_length_c   8.89182664
_cell_angle_alpha   103.94547887
_cell_angle_beta   103.94547891
_cell_angle_gamma   90.00000000
_symmetry_Int_Tables_number   1
_chemical_formula_structural   TbZrSb
_chemical_formula_sum   'Tb2 Zr2 Sb2'
_cell_volume   153.54944385
_cell_formula_units_Z   2
loop_
 _symmetry_equiv_pos_site_id
 _symmetry_equiv_pos_as_xyz
  1  'x, y, z'
loop_
 _atom_site_type_symbol
 _atom_site_label
 _atom_site_symmetry_multiplicity
 _atom_site_fract_x
 _atom_site_fract_y
 _atom_site_fract_z
 _atom_site_occupancy
  Zr  Zr0  1  0.000000  0.500000  0.000000  1
  Zr  Zr1  1  0.500000  0.000000  0.000000  1
  Sb  Sb2  1  0.132613  0.132613  0.265226  1
  Sb  Sb3  1  0.867387  0.867387  0.734774  1
  Tb  Tb4  1  0.676811  0.676811  0.353622  1
  Tb  Tb5  1  0.323189  0.323189  0.646378  1
