# generated using pymatgen
data_NdFeSi2
_symmetry_space_group_name_H-M   'P 1'
_cell_length_a   4.01763071
_cell_length_b   4.10274489
_cell_length_c   8.70006186
_cell_angle_alpha   103.63809247
_cell_angle_beta   90.00000000
_cell_angle_gamma   90.00000000
_symmetry_Int_Tables_number   1
_chemical_formula_structural   NdFeSi2
_chemical_formula_sum   'Nd2 Fe2 Si4'
_cell_volume   139.36244393
_cell_formula_units_Z   2
loop_
 _symmetry_equiv_pos_site_id
 _symmetry_equiv_pos_as_xyz
  1  'x, y, z'
loop_
 _atom_site_type_symbol
 _atom_site_label
 _atom_site_symmetry_multiplicity
 _atom_site_fract_x
 _atom_site_fract_y
 _atom_site_fract_z
 _atom_site_occupancy
  Si  Si0  1  0.250000  0.688819  0.377638  1
  Si  Si1  1  0.750000  0.311181  0.622362  1
  Si  Si2  1  0.750000  0.461693  0.923385  1
  Si  Si3  1  0.250000  0.538307  0.076615  1
  Fe  Fe4  1  0.750000  0.749430  0.498859  1
  Fe  Fe5  1  0.250000  0.250570  0.501141  1
  Nd  Nd6  1  0.250000  0.893059  0.786119  1
  Nd  Nd7  1  0.750000  0.106941  0.213881  1
