# generated using pymatgen
data_Nd2S3
_symmetry_space_group_name_H-M   'P 1'
_cell_length_a   4.05800169
_cell_length_b   7.51306025
_cell_length_c   15.68326375
_cell_angle_alpha   90.00000000
_cell_angle_beta   90.00000000
_cell_angle_gamma   90.00000000
_symmetry_Int_Tables_number   1
_chemical_formula_structural   Nd2S3
_chemical_formula_sum   'Nd8 S12'
_cell_volume   478.15152073
_cell_formula_units_Z   4
loop_
 _symmetry_equiv_pos_site_id
 _symmetry_equiv_pos_as_xyz
  1  'x, y, z'
loop_
 _atom_site_type_symbol
 _atom_site_label
 _atom_site_symmetry_multiplicity
 _atom_site_fract_x
 _atom_site_fract_y
 _atom_site_fract_z
 _atom_site_occupancy
  S  S0  1  0.250000  0.509635  0.109118  1
  S  S1  1  0.750000  0.490365  0.890882  1
  S  S2  1  0.250000  0.009635  0.390882  1
  S  S3  1  0.750000  0.990365  0.609118  1
  S  S4  1  0.750000  0.854445  0.218880  1
  S  S5  1  0.250000  0.145555  0.781120  1
  S  S6  1  0.750000  0.354445  0.281120  1
  S  S7  1  0.250000  0.645555  0.718880  1
  S  S8  1  0.250000  0.874032  0.932553  1
  S  S9  1  0.750000  0.125968  0.067447  1
  S  S10  1  0.250000  0.374032  0.567447  1
  S  S11  1  0.750000  0.625968  0.432553  1
  Nd  Nd12  1  0.750000  0.735303  0.044017  1
  Nd  Nd13  1  0.250000  0.264697  0.955983  1
  Nd  Nd14  1  0.750000  0.235303  0.455983  1
  Nd  Nd15  1  0.250000  0.764697  0.544017  1
  Nd  Nd16  1  0.250000  0.644884  0.295632  1
  Nd  Nd17  1  0.750000  0.355116  0.704368  1
  Nd  Nd18  1  0.250000  0.144884  0.204368  1
  Nd  Nd19  1  0.750000  0.855116  0.795632  1
