# generated using pymatgen
data_Dy(FeSi)2
_symmetry_space_group_name_H-M   'P 1'
_cell_length_a   3.96371597
_cell_length_b   3.96371598
_cell_length_c   5.51939164
_cell_angle_alpha   111.04320411
_cell_angle_beta   111.04320413
_cell_angle_gamma   90.00000005
_symmetry_Int_Tables_number   1
_chemical_formula_structural   Dy(FeSi)2
_chemical_formula_sum   'Dy1 Fe2 Si2'
_cell_volume   74.70293775
_cell_formula_units_Z   1
loop_
 _symmetry_equiv_pos_site_id
 _symmetry_equiv_pos_as_xyz
  1  'x, y, z'
loop_
 _atom_site_type_symbol
 _atom_site_label
 _atom_site_symmetry_multiplicity
 _atom_site_fract_x
 _atom_site_fract_y
 _atom_site_fract_z
 _atom_site_occupancy
  Si  Si0  1  0.634504  0.634504  0.269008  1
  Si  Si1  1  0.365496  0.365496  0.730992  1
  Fe  Fe2  1  0.250000  0.750000  0.500000  1
  Fe  Fe3  1  0.750000  0.250000  0.500000  1
  Dy  Dy4  1  0.000000  0.000000  0.000000  1
