# generated using pymatgen
data_La(FeSi)2
_symmetry_space_group_name_H-M   'P 1'
_cell_length_a   4.05615582
_cell_length_b   4.05615582
_cell_length_c   5.73283552
_cell_angle_alpha   110.71778753
_cell_angle_beta   110.71778750
_cell_angle_gamma   90.00000000
_symmetry_Int_Tables_number   1
_chemical_formula_structural   La(FeSi)2
_chemical_formula_sum   'La1 Fe2 Si2'
_cell_volume   81.66624533
_cell_formula_units_Z   1
loop_
 _symmetry_equiv_pos_site_id
 _symmetry_equiv_pos_as_xyz
  1  'x, y, z'
loop_
 _atom_site_type_symbol
 _atom_site_label
 _atom_site_symmetry_multiplicity
 _atom_site_fract_x
 _atom_site_fract_y
 _atom_site_fract_z
 _atom_site_occupancy
  Si  Si0  1  0.644372  0.644372  0.288743  1
  Si  Si1  1  0.355628  0.355628  0.711257  1
  Fe  Fe2  1  0.750000  0.250000  0.500000  1
  Fe  Fe3  1  0.250000  0.750000  0.500000  1
  La  La4  1  0.000000  0.000000  0.000000  1
