# generated using pymatgen
data_Cs3TlF6
_symmetry_space_group_name_H-M   'P 1'
_cell_length_a   7.09944197
_cell_length_b   7.09944247
_cell_length_c   7.19683250
_cell_angle_alpha   119.55335172
_cell_angle_beta   119.55335416
_cell_angle_gamma   90.00000297
_symmetry_Int_Tables_number   1
_chemical_formula_structural   Cs3TlF6
_chemical_formula_sum   'Cs3 Tl1 F6'
_cell_volume   259.91721160
_cell_formula_units_Z   1
loop_
 _symmetry_equiv_pos_site_id
 _symmetry_equiv_pos_as_xyz
  1  'x, y, z'
loop_
 _atom_site_type_symbol
 _atom_site_label
 _atom_site_symmetry_multiplicity
 _atom_site_fract_x
 _atom_site_fract_y
 _atom_site_fract_z
 _atom_site_occupancy
  Cs  Cs0  1  0.500000  0.500000  0.000000  1
  Cs  Cs1  1  0.750000  0.250000  0.500000  1
  Cs  Cs2  1  0.250000  0.750000  0.500000  1
  Tl  Tl3  1  0.000000  0.000000  0.000000  1
  F  F4  1  0.000000  0.694066  1.000000  1
  F  F5  1  0.777038  0.777038  0.554076  1
  F  F6  1  0.694066  0.000000  0.000000  1
  F  F7  1  0.222962  0.222962  0.445924  1
  F  F8  1  1.000000  0.305934  0.000000  1
  F  F9  1  0.305934  1.000000  1.000000  1
