# generated using pymatgen
data_WO3
_symmetry_space_group_name_H-M   'P 1'
_cell_length_a   3.86888052
_cell_length_b   7.69235349
_cell_length_c   7.78903044
_cell_angle_alpha   90.00000000
_cell_angle_beta   90.01718424
_cell_angle_gamma   90.00000000
_symmetry_Int_Tables_number   1
_chemical_formula_structural   WO3
_chemical_formula_sum   'W4 O12'
_cell_volume   231.80773973
_cell_formula_units_Z   4
loop_
 _symmetry_equiv_pos_site_id
 _symmetry_equiv_pos_as_xyz
  1  'x, y, z'
loop_
 _atom_site_type_symbol
 _atom_site_label
 _atom_site_symmetry_multiplicity
 _atom_site_fract_x
 _atom_site_fract_y
 _atom_site_fract_z
 _atom_site_occupancy
  W  W0  1  0.022883  0.250000  0.017908  1
  W  W1  1  0.977117  0.750000  0.982092  1
  W  W2  1  0.015025  0.750000  0.482055  1
  W  W3  1  0.984975  0.250000  0.517945  1
  O  O4  1  0.495062  0.750000  0.995944  1
  O  O5  1  0.504938  0.250000  0.004056  1
  O  O6  1  0.499238  0.250000  0.504437  1
  O  O7  1  0.500762  0.750000  0.495563  1
  O  O8  1  0.000000  0.500000  0.500000  1
  O  O9  1  0.000000  0.000000  0.500000  1
  O  O10  1  0.000000  0.000000  0.000000  1
  O  O11  1  0.000000  0.500000  0.000000  1
  O  O12  1  0.999037  0.750000  0.244808  1
  O  O13  1  0.000963  0.250000  0.755192  1
  O  O14  1  0.004918  0.250000  0.255111  1
  O  O15  1  0.995082  0.750000  0.744889  1
