# generated using pymatgen
data_Ce(CuSi)2
_symmetry_space_group_name_H-M   'P 1'
_cell_length_a   4.07827058
_cell_length_b   4.07827058
_cell_length_c   5.69459677
_cell_angle_alpha   110.98248075
_cell_angle_beta   110.98248073
_cell_angle_gamma   89.99999996
_symmetry_Int_Tables_number   1
_chemical_formula_structural   Ce(CuSi)2
_chemical_formula_sum   'Ce1 Si2 Cu2'
_cell_volume   81.67163965
_cell_formula_units_Z   1
loop_
 _symmetry_equiv_pos_site_id
 _symmetry_equiv_pos_as_xyz
  1  'x, y, z'
loop_
 _atom_site_type_symbol
 _atom_site_label
 _atom_site_symmetry_multiplicity
 _atom_site_fract_x
 _atom_site_fract_y
 _atom_site_fract_z
 _atom_site_occupancy
  Si  Si0  1  0.620365  0.620365  0.240730  1
  Si  Si1  1  0.379635  0.379635  0.759270  1
  Cu  Cu2  1  0.750000  0.250000  0.500000  1
  Cu  Cu3  1  0.250000  0.750000  0.500000  1
  Ce  Ce4  1  0.000000  0.000000  0.000000  1
