# generated using pymatgen
data_InBr3
_symmetry_space_group_name_H-M   'P 1'
_cell_length_a   7.14393325
_cell_length_b   6.91945578
_cell_length_c   6.93429141
_cell_angle_alpha   60.07074891
_cell_angle_beta   80.95816309
_cell_angle_gamma   71.64007708
_symmetry_Int_Tables_number   1
_chemical_formula_structural   InBr3
_chemical_formula_sum   'In2 Br6'
_cell_volume   281.94319889
_cell_formula_units_Z   2
loop_
 _symmetry_equiv_pos_site_id
 _symmetry_equiv_pos_as_xyz
  1  'x, y, z'
loop_
 _atom_site_type_symbol
 _atom_site_label
 _atom_site_symmetry_multiplicity
 _atom_site_fract_x
 _atom_site_fract_y
 _atom_site_fract_z
 _atom_site_occupancy
  In  In0  1  1.000000  0.834031  0.331938  1
  In  In1  1  0.000000  0.165969  0.668062  1
  Br  Br2  1  0.233956  0.782187  1.000000  1
  Br  Br3  1  0.768811  0.931679  0.642945  1
  Br  Br4  1  0.766044  0.217813  0.000000  1
  Br  Br5  1  0.231189  0.068321  0.357055  1
  Br  Br6  1  0.768811  0.574624  0.357055  1
  Br  Br7  1  0.231189  0.425376  0.642945  1
