# generated using pymatgen
data_Gd2O3
_symmetry_space_group_name_H-M   'P 1'
_cell_length_a   9.41018424
_cell_length_b   9.41018373
_cell_length_c   9.41018465
_cell_angle_alpha   109.47122044
_cell_angle_beta   109.47121933
_cell_angle_gamma   109.47121993
_symmetry_Int_Tables_number   1
_chemical_formula_structural   Gd2O3
_chemical_formula_sum   'Gd16 O24'
_cell_volume   641.46430730
_cell_formula_units_Z   8
loop_
 _symmetry_equiv_pos_site_id
 _symmetry_equiv_pos_as_xyz
  1  'x, y, z'
loop_
 _atom_site_type_symbol
 _atom_site_label
 _atom_site_symmetry_multiplicity
 _atom_site_fract_x
 _atom_site_fract_y
 _atom_site_fract_z
 _atom_site_occupancy
  Gd  Gd0  1  0.500000  0.500000  0.500000  1
  Gd  Gd1  1  0.000000  0.000000  0.500000  1
  Gd  Gd2  1  0.500000  0.000000  0.000000  1
  Gd  Gd3  1  0.000000  0.500000  0.000000  1
  Gd  Gd4  1  0.250000  0.218186  0.968186  1
  Gd  Gd5  1  0.281814  0.531814  0.750000  1
  Gd  Gd6  1  0.531814  0.750000  0.281814  1
  Gd  Gd7  1  0.218186  0.968186  0.250000  1
  Gd  Gd8  1  0.968186  0.250000  0.218186  1
  Gd  Gd9  1  0.750000  0.281814  0.531814  1
  Gd  Gd10  1  0.750000  0.781814  0.031814  1
  Gd  Gd11  1  0.718186  0.468186  0.250000  1
  Gd  Gd12  1  0.468186  0.250000  0.718186  1
  Gd  Gd13  1  0.781814  0.031814  0.750000  1
  Gd  Gd14  1  0.031814  0.750000  0.781814  1
  Gd  Gd15  1  0.250000  0.718186  0.468186  1
  O  O16  1  0.530392  0.770098  0.541232  1
  O  O17  1  0.989160  0.958768  0.728866  1
  O  O18  1  0.260293  0.771134  0.729902  1
  O  O19  1  0.510840  0.239707  0.969608  1
  O  O20  1  0.958768  0.728866  0.989160  1
  O  O21  1  0.729902  0.260293  0.771134  1
  O  O22  1  0.239707  0.969608  0.510840  1
  O  O23  1  0.541232  0.530392  0.770098  1
  O  O24  1  0.770098  0.541232  0.530392  1
  O  O25  1  0.728866  0.989160  0.958768  1
  O  O26  1  0.771134  0.729902  0.260293  1
  O  O27  1  0.969608  0.510840  0.239707  1
  O  O28  1  0.469608  0.229902  0.458768  1
  O  O29  1  0.010840  0.041232  0.271134  1
  O  O30  1  0.739707  0.228866  0.270098  1
  O  O31  1  0.489160  0.760293  0.030392  1
  O  O32  1  0.041232  0.271134  0.010840  1
  O  O33  1  0.270098  0.739707  0.228866  1
  O  O34  1  0.760293  0.030392  0.489160  1
  O  O35  1  0.458768  0.469608  0.229902  1
  O  O36  1  0.229902  0.458768  0.469608  1
  O  O37  1  0.271134  0.010840  0.041232  1
  O  O38  1  0.228866  0.270098  0.739707  1
  O  O39  1  0.030392  0.489160  0.760293  1
