# generated using pymatgen
data_GdTe2ClO5
_symmetry_space_group_name_H-M   'P 1'
_cell_length_a   3.94192410
_cell_length_b   3.94194659
_cell_length_c   8.54454404
_cell_angle_alpha   90.00000000
_cell_angle_beta   90.00000000
_cell_angle_gamma   90.00000000
_symmetry_Int_Tables_number   1
_chemical_formula_structural   GdTe2ClO5
_chemical_formula_sum   'Gd1 Te2 Cl1 O5'
_cell_volume   132.77242459
_cell_formula_units_Z   1
loop_
 _symmetry_equiv_pos_site_id
 _symmetry_equiv_pos_as_xyz
  1  'x, y, z'
loop_
 _atom_site_type_symbol
 _atom_site_label
 _atom_site_symmetry_multiplicity
 _atom_site_fract_x
 _atom_site_fract_y
 _atom_site_fract_z
 _atom_site_occupancy
  O  O0  1  0.500000  0.000000  0.180673  1
  Te  Te1  1  0.500000  0.500000  0.741592  1
  O  O2  1  0.000000  0.500000  0.180672  1
  Gd  Gd3  1  0.000000  0.000000  -0.000000  1
  Te  Te4  1  0.500000  0.500000  0.258408  1
  O  O5  1  0.000000  0.500000  0.819326  1
  O  O6  1  0.500000  0.500000  0.000001  1
  Cl  Cl7  1  0.000000  0.000000  0.500001  1
  O  O8  1  0.500000  0.000000  0.819327  1
