# generated using pymatgen
data_Ca4CN4
_symmetry_space_group_name_H-M   'P 1'
_cell_length_a   3.57455560
_cell_length_b   11.46255350
_cell_length_c   14.05060850
_cell_angle_alpha   90.00000000
_cell_angle_beta   90.00000000
_cell_angle_gamma   90.00000000
_symmetry_Int_Tables_number   1
_chemical_formula_structural   Ca4CN4
_chemical_formula_sum   'Ca16 C4 N16'
_cell_volume   575.70309639
_cell_formula_units_Z   4
loop_
 _symmetry_equiv_pos_site_id
 _symmetry_equiv_pos_as_xyz
  1  'x, y, z'
loop_
 _atom_site_type_symbol
 _atom_site_label
 _atom_site_symmetry_multiplicity
 _atom_site_fract_x
 _atom_site_fract_y
 _atom_site_fract_z
 _atom_site_occupancy
  C  C0  1  0.250000  0.361189  0.086208  1
  C  C1  1  0.750000  0.638811  0.913792  1
  C  C2  1  0.250000  0.861189  0.413792  1
  C  C3  1  0.750000  0.138811  0.586208  1
  N  N4  1  0.250000  0.454166  0.132015  1
  N  N5  1  0.750000  0.545834  0.867985  1
  N  N6  1  0.250000  0.954166  0.367985  1
  N  N7  1  0.750000  0.045834  0.632015  1
  N  N8  1  0.250000  0.268760  0.039969  1
  N  N9  1  0.750000  0.731240  0.960031  1
  N  N10  1  0.250000  0.768760  0.460031  1
  N  N11  1  0.750000  0.231240  0.539969  1
  N  N12  1  0.250000  0.999151  0.884095  1
  N  N13  1  0.750000  0.000849  0.115905  1
  N  N14  1  0.250000  0.499151  0.615905  1
  N  N15  1  0.750000  0.500849  0.384095  1
  N  N16  1  0.750000  0.766066  0.685867  1
  N  N17  1  0.250000  0.233934  0.314133  1
  N  N18  1  0.750000  0.266066  0.814133  1
  N  N19  1  0.250000  0.733934  0.185867  1
  Ca  Ca20  1  0.250000  0.138501  0.761312  1
  Ca  Ca21  1  0.750000  0.861499  0.238688  1
  Ca  Ca22  1  0.250000  0.638501  0.738688  1
  Ca  Ca23  1  0.750000  0.361499  0.261312  1
  Ca  Ca24  1  0.250000  0.375787  0.882715  1
  Ca  Ca25  1  0.750000  0.624213  0.117285  1
  Ca  Ca26  1  0.250000  0.875787  0.617285  1
  Ca  Ca27  1  0.750000  0.124214  0.382715  1
  Ca  Ca28  1  0.250000  0.879959  0.040448  1
  Ca  Ca29  1  0.750000  0.120041  0.959552  1
  Ca  Ca30  1  0.250000  0.379959  0.459552  1
  Ca  Ca31  1  0.750000  0.620041  0.540448  1
  Ca  Ca32  1  0.250000  0.115692  0.170025  1
  Ca  Ca33  1  0.750000  0.884308  0.829975  1
  Ca  Ca34  1  0.250000  0.615692  0.329975  1
  Ca  Ca35  1  0.750000  0.384308  0.670025  1
