# generated using pymatgen
data_NbTeI3
_symmetry_space_group_name_H-M   'P 1'
_cell_length_a   7.46961439
_cell_length_b   7.89781557
_cell_length_c   13.70493925
_cell_angle_alpha   90.00000000
_cell_angle_beta   100.71892692
_cell_angle_gamma   90.00000000
_symmetry_Int_Tables_number   1
_chemical_formula_structural   NbTeI3
_chemical_formula_sum   'Nb4 Te4 I12'
_cell_volume   794.39695088
_cell_formula_units_Z   4
loop_
 _symmetry_equiv_pos_site_id
 _symmetry_equiv_pos_as_xyz
  1  'x, y, z'
loop_
 _atom_site_type_symbol
 _atom_site_label
 _atom_site_symmetry_multiplicity
 _atom_site_fract_x
 _atom_site_fract_y
 _atom_site_fract_z
 _atom_site_occupancy
  I  I0  1  0.150397  0.326022  0.045736  1
  I  I1  1  0.849603  0.326022  0.454264  1
  I  I2  1  0.849603  0.673978  0.954264  1
  I  I3  1  0.150397  0.673978  0.545736  1
  I  I4  1  0.650476  0.208391  0.920695  1
  I  I5  1  0.349524  0.208391  0.579305  1
  I  I6  1  0.349524  0.791609  0.079305  1
  I  I7  1  0.650476  0.791609  0.420695  1
  I  I8  1  0.751260  0.561117  0.688734  1
  I  I9  1  0.248740  0.561117  0.811266  1
  I  I10  1  0.248740  0.438883  0.311266  1
  I  I11  1  0.751260  0.438883  0.188734  1
  Te  Te12  1  0.170798  0.106507  0.805819  1
  Te  Te13  1  0.829202  0.106507  0.694181  1
  Te  Te14  1  0.829202  0.893493  0.194181  1
  Te  Te15  1  0.170798  0.893493  0.305819  1
  Nb  Nb16  1  0.934449  0.362546  0.845513  1
  Nb  Nb17  1  0.065551  0.362546  0.654487  1
  Nb  Nb18  1  0.065551  0.637454  0.154487  1
  Nb  Nb19  1  0.934449  0.637454  0.345513  1
