# generated using pymatgen
data_MnAsRh
_symmetry_space_group_name_H-M   'P 1'
_cell_length_a   6.49745411
_cell_length_b   6.49745439
_cell_length_c   3.66358058
_cell_angle_alpha   90.00000000
_cell_angle_beta   90.00000000
_cell_angle_gamma   119.99999850
_symmetry_Int_Tables_number   1
_chemical_formula_structural   MnAsRh
_chemical_formula_sum   'Mn3 As3 Rh3'
_cell_volume   133.94387138
_cell_formula_units_Z   3
loop_
 _symmetry_equiv_pos_site_id
 _symmetry_equiv_pos_as_xyz
  1  'x, y, z'
loop_
 _atom_site_type_symbol
 _atom_site_label
 _atom_site_symmetry_multiplicity
 _atom_site_fract_x
 _atom_site_fract_y
 _atom_site_fract_z
 _atom_site_occupancy
  Mn  Mn0  1  0.405056  0.405056  0.500000  1
  Mn  Mn1  1  0.000000  0.594944  0.500000  1
  Mn  Mn2  1  0.594944  0.000000  0.500000  1
  As  As3  1  0.000000  0.000000  0.500000  1
  As  As4  1  0.666667  0.333333  0.000000  1
  As  As5  1  0.333333  0.666667  0.000000  1
  Rh  Rh6  1  0.263148  0.000000  0.000000  1
  Rh  Rh7  1  0.736852  0.736852  0.000000  1
  Rh  Rh8  1  0.000000  0.263148  0.000000  1
