# generated using pymatgen
data_TiI4
_symmetry_space_group_name_H-M   'P 1'
_cell_length_a   7.00526376
_cell_length_b   8.25961663
_cell_length_c   8.25961597
_cell_angle_alpha   62.15863632
_cell_angle_beta   88.77567127
_cell_angle_gamma   88.77567426
_symmetry_Int_Tables_number   1
_chemical_formula_structural   TiI4
_chemical_formula_sum   'Ti2 I8'
_cell_volume   422.45570997
_cell_formula_units_Z   2
loop_
 _symmetry_equiv_pos_site_id
 _symmetry_equiv_pos_as_xyz
  1  'x, y, z'
loop_
 _atom_site_type_symbol
 _atom_site_label
 _atom_site_symmetry_multiplicity
 _atom_site_fract_x
 _atom_site_fract_y
 _atom_site_fract_z
 _atom_site_occupancy
  Ti  Ti0  1  0.750000  0.343138  0.656862  1
  Ti  Ti1  1  0.250000  0.656862  0.343138  1
  I  I2  1  0.931680  0.496045  0.287752  1
  I  I3  1  0.568320  0.712248  0.503955  1
  I  I4  1  0.068320  0.503955  0.712248  1
  I  I5  1  0.431680  0.287752  0.496045  1
  I  I6  1  0.609571  0.266572  0.977852  1
  I  I7  1  0.890429  0.022148  0.733428  1
  I  I8  1  0.390429  0.733428  0.022148  1
  I  I9  1  0.109571  0.977852  0.266572  1
