# generated using pymatgen
data_EuCl3
_symmetry_space_group_name_H-M   'P 1'
_cell_length_a   7.61887449
_cell_length_b   7.61887455
_cell_length_c   4.38854465
_cell_angle_alpha   90.00000000
_cell_angle_beta   90.00000000
_cell_angle_gamma   119.99999971
_symmetry_Int_Tables_number   1
_chemical_formula_structural   EuCl3
_chemical_formula_sum   'Eu2 Cl6'
_cell_volume   220.61386134
_cell_formula_units_Z   2
loop_
 _symmetry_equiv_pos_site_id
 _symmetry_equiv_pos_as_xyz
  1  'x, y, z'
loop_
 _atom_site_type_symbol
 _atom_site_label
 _atom_site_symmetry_multiplicity
 _atom_site_fract_x
 _atom_site_fract_y
 _atom_site_fract_z
 _atom_site_occupancy
  Eu  Eu0  1  0.333333  0.666667  0.250000  1
  Eu  Eu1  1  0.666667  0.333333  0.750000  1
  Cl  Cl2  1  0.377987  0.295241  0.250000  1
  Cl  Cl3  1  0.917254  0.622013  0.250000  1
  Cl  Cl4  1  0.295241  0.917254  0.750000  1
  Cl  Cl5  1  0.622013  0.704759  0.750000  1
  Cl  Cl6  1  0.082746  0.377987  0.750000  1
  Cl  Cl7  1  0.704759  0.082746  0.250000  1
