# generated using pymatgen
data_ZrCrF6
_symmetry_space_group_name_H-M   'P 1'
_cell_length_a   5.88311517
_cell_length_b   5.88311567
_cell_length_c   5.88311526
_cell_angle_alpha   60.00000230
_cell_angle_beta   59.99999947
_cell_angle_gamma   59.99999920
_symmetry_Int_Tables_number   1
_chemical_formula_structural   ZrCrF6
_chemical_formula_sum   'Zr1 Cr1 F6'
_cell_volume   143.98163459
_cell_formula_units_Z   1
loop_
 _symmetry_equiv_pos_site_id
 _symmetry_equiv_pos_as_xyz
  1  'x, y, z'
loop_
 _atom_site_type_symbol
 _atom_site_label
 _atom_site_symmetry_multiplicity
 _atom_site_fract_x
 _atom_site_fract_y
 _atom_site_fract_z
 _atom_site_occupancy
  Zr  Zr0  1  0.500000  0.500000  0.500000  1
  Cr  Cr1  1  0.000000  0.000000  0.000000  1
  F  F2  1  0.254395  0.745605  0.745605  1
  F  F3  1  0.254395  0.745605  0.254395  1
  F  F4  1  0.745605  0.254395  0.254395  1
  F  F5  1  0.745605  0.745605  0.254395  1
  F  F6  1  0.254395  0.254395  0.745605  1
  F  F7  1  0.745605  0.254395  0.745605  1
