# generated using pymatgen
data_BeI2
_symmetry_space_group_name_H-M   'P 1'
_cell_length_a   6.50542480
_cell_length_b   6.14326064
_cell_length_c   7.55410306
_cell_angle_alpha   113.99252318
_cell_angle_beta   115.50493576
_cell_angle_gamma   90.00000538
_symmetry_Int_Tables_number   1
_chemical_formula_structural   BeI2
_chemical_formula_sum   'Be2 I4'
_cell_volume   243.25698503
_cell_formula_units_Z   2
loop_
 _symmetry_equiv_pos_site_id
 _symmetry_equiv_pos_as_xyz
  1  'x, y, z'
loop_
 _atom_site_type_symbol
 _atom_site_label
 _atom_site_symmetry_multiplicity
 _atom_site_fract_x
 _atom_site_fract_y
 _atom_site_fract_z
 _atom_site_occupancy
  Be  Be0  1  0.000000  0.750000  0.000000  1
  Be  Be1  1  0.000000  0.250000  0.000000  1
  I  I2  1  0.904417  0.609403  0.218806  1
  I  I3  1  0.314389  0.109403  0.218806  1
  I  I4  1  0.685611  0.890597  0.781194  1
  I  I5  1  0.095583  0.390597  0.781194  1
