# generated using pymatgen
data_Zn2P2O7
_symmetry_space_group_name_H-M   'P 1'
_cell_length_a   4.55848954
_cell_length_b   5.35315978
_cell_length_c   5.35315969
_cell_angle_alpha   103.16826495
_cell_angle_beta   99.10000258
_cell_angle_gamma   99.10002221
_symmetry_Int_Tables_number   1
_chemical_formula_structural   Zn2P2O7
_chemical_formula_sum   'Zn2 P2 O7'
_cell_volume   123.00536276
_cell_formula_units_Z   1
loop_
 _symmetry_equiv_pos_site_id
 _symmetry_equiv_pos_as_xyz
  1  'x, y, z'
loop_
 _atom_site_type_symbol
 _atom_site_label
 _atom_site_symmetry_multiplicity
 _atom_site_fract_x
 _atom_site_fract_y
 _atom_site_fract_z
 _atom_site_occupancy
  O  O0  1  0.277078  0.930197  0.626059  1
  P  P1  1  0.092924  0.785451  0.785451  1
  O  O2  1  0.722923  0.373941  0.069803  1
  O  O3  1  0.722922  0.069803  0.373941  1
  P  P4  1  0.907076  0.214549  0.214549  1
  O  O5  1  0.277077  0.626059  0.930196  1
  O  O6  1  0.212780  0.380114  0.380114  1
  Zn  Zn7  1  0.500000  0.690654  0.309345  1
  O  O8  1  1.000000  0.999999  0.000000  1
  Zn  Zn9  1  0.500000  0.309345  0.690655  1
  O  O10  1  0.787220  0.619886  0.619885  1
