# generated using pymatgen
data_Si3Ir
_symmetry_space_group_name_H-M   'P 1'
_cell_length_a   4.77763574
_cell_length_b   4.77763627
_cell_length_c   6.42282628
_cell_angle_alpha   90.00000000
_cell_angle_beta   90.00000000
_cell_angle_gamma   119.99999635
_symmetry_Int_Tables_number   1
_chemical_formula_structural   Si3Ir
_chemical_formula_sum   'Si6 Ir2'
_cell_volume   126.96468546
_cell_formula_units_Z   2
loop_
 _symmetry_equiv_pos_site_id
 _symmetry_equiv_pos_as_xyz
  1  'x, y, z'
loop_
 _atom_site_type_symbol
 _atom_site_label
 _atom_site_symmetry_multiplicity
 _atom_site_fract_x
 _atom_site_fract_y
 _atom_site_fract_z
 _atom_site_occupancy
  Si  Si0  1  0.665434  0.832717  0.581459  1
  Si  Si1  1  0.334566  0.167283  0.081459  1
  Si  Si2  1  0.832717  0.665434  0.081459  1
  Si  Si3  1  0.167283  0.832717  0.581459  1
  Si  Si4  1  0.832717  0.167283  0.081459  1
  Si  Si5  1  0.167283  0.334566  0.581459  1
  Ir  Ir6  1  0.666667  0.333333  0.754622  1
  Ir  Ir7  1  0.333333  0.666667  0.254622  1
