# generated using pymatgen
data_KCuF3
_symmetry_space_group_name_H-M   'P 1'
_cell_length_a   4.06501910
_cell_length_b   5.75720152
_cell_length_c   5.75720152
_cell_angle_alpha   90.00000000
_cell_angle_beta   90.00000000
_cell_angle_gamma   90.00000000
_symmetry_Int_Tables_number   1
_chemical_formula_structural   KCuF3
_chemical_formula_sum   'K2 Cu2 F6'
_cell_volume   134.73655945
_cell_formula_units_Z   2
loop_
 _symmetry_equiv_pos_site_id
 _symmetry_equiv_pos_as_xyz
  1  'x, y, z'
loop_
 _atom_site_type_symbol
 _atom_site_label
 _atom_site_symmetry_multiplicity
 _atom_site_fract_x
 _atom_site_fract_y
 _atom_site_fract_z
 _atom_site_occupancy
  F  F0  1  0.000000  0.751049  0.251049  1
  F  F1  1  0.000000  0.748951  0.751049  1
  F  F2  1  0.000000  0.251049  0.248951  1
  F  F3  1  0.000000  0.248951  0.748951  1
  F  F4  1  0.500000  0.000000  0.500000  1
  F  F5  1  0.500000  0.500000  0.000000  1
  K  K6  1  0.500000  0.000000  0.000000  1
  K  K7  1  0.500000  0.500000  0.500000  1
  Cu  Cu8  1  0.000000  0.000000  0.500000  1
  Cu  Cu9  1  0.000000  0.500000  0.000000  1
