# generated using pymatgen
data_NaUO3
_symmetry_space_group_name_H-M   'P 1'
_cell_length_a   5.97292822
_cell_length_b   8.29341363
_cell_length_c   5.80620450
_cell_angle_alpha   90.00000000
_cell_angle_beta   90.00000000
_cell_angle_gamma   90.00000000
_symmetry_Int_Tables_number   1
_chemical_formula_structural   NaUO3
_chemical_formula_sum   'Na4 U4 O12'
_cell_volume   287.61593889
_cell_formula_units_Z   4
loop_
 _symmetry_equiv_pos_site_id
 _symmetry_equiv_pos_as_xyz
  1  'x, y, z'
loop_
 _atom_site_type_symbol
 _atom_site_label
 _atom_site_symmetry_multiplicity
 _atom_site_fract_x
 _atom_site_fract_y
 _atom_site_fract_z
 _atom_site_occupancy
  Na  Na0  1  0.528257  0.250000  0.512263  1
  Na  Na1  1  0.028257  0.250000  0.987737  1
  Na  Na2  1  0.471743  0.750000  0.487737  1
  Na  Na3  1  0.971743  0.750000  0.012263  1
  U  U4  1  0.000000  0.500000  0.500000  1
  U  U5  1  0.000000  0.000000  0.500000  1
  U  U6  1  0.500000  0.500000  0.000000  1
  U  U7  1  0.500000  0.000000  0.000000  1
  O  O8  1  0.029496  0.750000  0.604296  1
  O  O9  1  0.713318  0.944277  0.288812  1
  O  O10  1  0.786682  0.444277  0.788812  1
  O  O11  1  0.286682  0.444277  0.711188  1
  O  O12  1  0.286682  0.055723  0.711188  1
  O  O13  1  0.970504  0.250000  0.395704  1
  O  O14  1  0.713318  0.555723  0.288812  1
  O  O15  1  0.786682  0.055723  0.788812  1
  O  O16  1  0.213318  0.555723  0.211188  1
  O  O17  1  0.529496  0.750000  0.895704  1
  O  O18  1  0.213318  0.944277  0.211188  1
  O  O19  1  0.470504  0.250000  0.104296  1
