# generated using pymatgen
data_KMnF3
_symmetry_space_group_name_H-M   'P 1'
_cell_length_a   5.99161285
_cell_length_b   5.99161285
_cell_length_c   6.02731601
_cell_angle_alpha   119.80424296
_cell_angle_beta   119.80424297
_cell_angle_gamma   89.99999999
_symmetry_Int_Tables_number   1
_chemical_formula_structural   KMnF3
_chemical_formula_sum   'K2 Mn2 F6'
_cell_volume   153.90274644
_cell_formula_units_Z   2
loop_
 _symmetry_equiv_pos_site_id
 _symmetry_equiv_pos_as_xyz
  1  'x, y, z'
loop_
 _atom_site_type_symbol
 _atom_site_label
 _atom_site_symmetry_multiplicity
 _atom_site_fract_x
 _atom_site_fract_y
 _atom_site_fract_z
 _atom_site_occupancy
  F  F0  1  0.750000  0.750000  0.500000  1
  F  F1  1  0.250000  0.250000  0.500000  1
  F  F2  1  0.785810  0.285810  0.000000  1
  F  F3  1  0.714190  0.785810  0.000000  1
  F  F4  1  0.214190  0.714190  0.000000  1
  F  F5  1  0.285810  0.214190  0.000000  1
  K  K6  1  0.750000  0.250000  0.500000  1
  K  K7  1  0.250000  0.750000  0.500000  1
  Mn  Mn8  1  0.500000  0.500000  0.000000  1
  Mn  Mn9  1  0.000000  0.000000  0.000000  1
