# generated using pymatgen
data_ThSiO4
_symmetry_space_group_name_H-M   'P 1'
_cell_length_a   6.00126332
_cell_length_b   6.00126332
_cell_length_c   6.00126332
_cell_angle_alpha   106.30192959
_cell_angle_beta   106.30192965
_cell_angle_gamma   116.01471301
_symmetry_Int_Tables_number   1
_chemical_formula_structural   ThSiO4
_chemical_formula_sum   'Th2 Si2 O8'
_cell_volume   164.73623933
_cell_formula_units_Z   2
loop_
 _symmetry_equiv_pos_site_id
 _symmetry_equiv_pos_as_xyz
  1  'x, y, z'
loop_
 _atom_site_type_symbol
 _atom_site_label
 _atom_site_symmetry_multiplicity
 _atom_site_fract_x
 _atom_site_fract_y
 _atom_site_fract_z
 _atom_site_occupancy
  O  O0  1  0.135043  0.708566  0.426476  1
  O  O1  1  0.708566  0.782090  0.573524  1
  O  O2  1  0.708566  0.135043  0.926476  1
  O  O3  1  0.782090  0.708566  0.073524  1
  O  O4  1  0.291434  0.864957  0.073524  1
  O  O5  1  0.217910  0.291434  0.926476  1
  O  O6  1  0.864957  0.291434  0.573524  1
  O  O7  1  0.291434  0.217910  0.426476  1
  Si  Si8  1  0.125000  0.875000  0.250000  1
  Si  Si9  1  0.875000  0.125000  0.750000  1
  Th  Th10  1  0.625000  0.375000  0.250000  1
  Th  Th11  1  0.375000  0.625000  0.750000  1
