# generated using pymatgen
data_Bi2Te3
_symmetry_space_group_name_H-M   'P 1'
_cell_length_a   10.22888150
_cell_length_b   10.22888160
_cell_length_c   10.22888260
_cell_angle_alpha   25.16855705
_cell_angle_beta   25.16855574
_cell_angle_gamma   25.16855659
_symmetry_Int_Tables_number   1
_chemical_formula_structural   Bi2Te3
_chemical_formula_sum   'Bi2 Te3'
_cell_volume   170.33095660
_cell_formula_units_Z   1
loop_
 _symmetry_equiv_pos_site_id
 _symmetry_equiv_pos_as_xyz
  1  'x, y, z'
loop_
 _atom_site_type_symbol
 _atom_site_label
 _atom_site_symmetry_multiplicity
 _atom_site_fract_x
 _atom_site_fract_y
 _atom_site_fract_z
 _atom_site_occupancy
  Bi  Bi0  1  0.190451  0.190451  0.190451  1
  Bi  Bi1  1  0.599821  0.599821  0.599821  1
  Te  Te2  1  0.993159  0.993159  0.993159  1
  Te  Te3  1  0.394766  0.394766  0.394766  1
  Te  Te4  1  0.796803  0.796803  0.796803  1
