# generated using pymatgen
data_Tl(CoS)2
_symmetry_space_group_name_H-M   'P 1'
_cell_length_a   3.73535096
_cell_length_b   3.73535163
_cell_length_c   7.02773850
_cell_angle_alpha   105.41198327
_cell_angle_beta   105.41198612
_cell_angle_gamma   89.99999831
_symmetry_Int_Tables_number   1
_chemical_formula_structural   Tl(CoS)2
_chemical_formula_sum   'Tl1 Co2 S2'
_cell_volume   90.86795676
_cell_formula_units_Z   1
loop_
 _symmetry_equiv_pos_site_id
 _symmetry_equiv_pos_as_xyz
  1  'x, y, z'
loop_
 _atom_site_type_symbol
 _atom_site_label
 _atom_site_symmetry_multiplicity
 _atom_site_fract_x
 _atom_site_fract_y
 _atom_site_fract_z
 _atom_site_occupancy
  Tl  Tl0  1  0.000000  0.000000  0.000000  1
  Co  Co1  1  0.250000  0.750000  0.500000  1
  Co  Co2  1  0.750000  0.250000  0.500000  1
  S  S3  1  0.340888  0.340888  0.681776  1
  S  S4  1  0.659112  0.659112  0.318224  1
