# generated using pymatgen
data_TmBi2BrO4
_symmetry_space_group_name_H-M   'P 1'
_cell_length_a   3.89029624
_cell_length_b   3.89031275
_cell_length_c   9.25956348
_cell_angle_alpha   90.00000000
_cell_angle_beta   90.00000000
_cell_angle_gamma   90.00000000
_symmetry_Int_Tables_number   1
_chemical_formula_structural   TmBi2BrO4
_chemical_formula_sum   'Tm1 Bi2 Br1 O4'
_cell_volume   140.13857703
_cell_formula_units_Z   1
loop_
 _symmetry_equiv_pos_site_id
 _symmetry_equiv_pos_as_xyz
  1  'x, y, z'
loop_
 _atom_site_type_symbol
 _atom_site_label
 _atom_site_symmetry_multiplicity
 _atom_site_fract_x
 _atom_site_fract_y
 _atom_site_fract_z
 _atom_site_occupancy
  O  O0  1  0.000000  0.500000  0.146252  1
  O  O1  1  0.000000  0.500000  0.853747  1
  O  O2  1  0.500000  0.000000  0.146252  1
  Tm  Tm3  1  0.000000  0.000000  1.000001  1
  Bi  Bi4  1  0.500000  0.500000  0.268654  1
  Bi  Bi5  1  0.500000  0.500000  0.731346  1
  O  O6  1  0.500000  0.000000  0.853747  1
  Br  Br7  1  0.000000  0.000000  0.500000  1
