# generated using pymatgen
data_CaMg(CO3)2
_symmetry_space_group_name_H-M   'P 1'
_cell_length_a   6.08391508
_cell_length_b   6.08391508
_cell_length_c   6.08391508
_cell_angle_alpha   47.13545592
_cell_angle_beta   47.13545597
_cell_angle_gamma   47.13545599
_symmetry_Int_Tables_number   1
_chemical_formula_structural   CaMg(CO3)2
_chemical_formula_sum   'Ca1 Mg1 C2 O6'
_cell_volume   110.62200478
_cell_formula_units_Z   1
loop_
 _symmetry_equiv_pos_site_id
 _symmetry_equiv_pos_as_xyz
  1  'x, y, z'
loop_
 _atom_site_type_symbol
 _atom_site_label
 _atom_site_symmetry_multiplicity
 _atom_site_fract_x
 _atom_site_fract_y
 _atom_site_fract_z
 _atom_site_occupancy
  C  C0  1  0.757209  0.757209  0.757209  1
  C  C1  1  0.242791  0.242791  0.242791  1
  O  O2  1  0.722727  0.507618  0.038039  1
  O  O3  1  0.038039  0.722727  0.507618  1
  O  O4  1  0.492382  0.961961  0.277273  1
  O  O5  1  0.277273  0.492382  0.961961  1
  O  O6  1  0.961961  0.277273  0.492382  1
  O  O7  1  0.507618  0.038039  0.722727  1
  Mg  Mg8  1  0.500000  0.500000  0.500000  1
  Ca  Ca9  1  0.000000  0.000000  0.000000  1
