# generated using pymatgen
data_Si
_symmetry_space_group_name_H-M   'P 1'
_cell_length_a   5.45513673
_cell_length_b   3.97462307
_cell_length_c   9.14468518
_cell_angle_alpha   78.22842655
_cell_angle_beta   108.78165757
_cell_angle_gamma   111.23949737
_symmetry_Int_Tables_number   1
_chemical_formula_structural   Si
_chemical_formula_sum   Si8
_cell_volume   174.10768315
_cell_formula_units_Z   8
loop_
 _symmetry_equiv_pos_site_id
 _symmetry_equiv_pos_as_xyz
  1  'x, y, z'
loop_
 _atom_site_type_symbol
 _atom_site_label
 _atom_site_symmetry_multiplicity
 _atom_site_fract_x
 _atom_site_fract_y
 _atom_site_fract_z
 _atom_site_occupancy
  Si  Si0  1  0.827655  0.094740  0.082333  1
  Si  Si1  1  0.211002  0.000724  0.059711  1
  Si  Si2  1  0.003634  0.566595  0.240718  1
  Si  Si3  1  0.361705  0.125707  0.628459  1
  Si  Si4  1  0.069501  0.841008  0.801645  1
  Si  Si5  1  0.842253  0.286715  0.682330  1
  Si  Si6  1  0.132669  0.567874  0.511322  1
  Si  Si7  1  0.566418  0.509253  0.000092  1
