# generated using pymatgen
data_Mg5Pd2
_symmetry_space_group_name_H-M   'P 1'
_cell_length_a   9.03932552
_cell_length_b   9.03932520
_cell_length_c   7.82756232
_cell_angle_alpha   90.00000000
_cell_angle_beta   90.00000000
_cell_angle_gamma   120.00000118
_symmetry_Int_Tables_number   1
_chemical_formula_structural   Mg5Pd2
_chemical_formula_sum   'Mg20 Pd8'
_cell_volume   553.89723544
_cell_formula_units_Z   4
loop_
 _symmetry_equiv_pos_site_id
 _symmetry_equiv_pos_as_xyz
  1  'x, y, z'
loop_
 _atom_site_type_symbol
 _atom_site_label
 _atom_site_symmetry_multiplicity
 _atom_site_fract_x
 _atom_site_fract_y
 _atom_site_fract_z
 _atom_site_occupancy
  Mg  Mg0  1  0.801469  0.602939  0.449019  1
  Mg  Mg1  1  0.488192  0.511808  0.250000  1
  Mg  Mg2  1  0.511808  0.023616  0.750000  1
  Mg  Mg3  1  0.976384  0.488192  0.750000  1
  Mg  Mg4  1  0.397061  0.198531  0.050981  1
  Mg  Mg5  1  0.602939  0.801469  0.550981  1
  Mg  Mg6  1  0.198531  0.397061  0.949019  1
  Mg  Mg7  1  0.801469  0.198531  0.050981  1
  Mg  Mg8  1  0.198531  0.801469  0.550981  1
  Mg  Mg9  1  0.801469  0.602939  0.050981  1
  Mg  Mg10  1  0.198531  0.397061  0.550981  1
  Mg  Mg11  1  0.602939  0.801469  0.949019  1
  Mg  Mg12  1  0.023616  0.511808  0.250000  1
  Mg  Mg13  1  0.000000  0.000000  0.000000  1
  Mg  Mg14  1  0.397061  0.198531  0.449019  1
  Mg  Mg15  1  0.198531  0.801469  0.949019  1
  Mg  Mg16  1  0.801469  0.198531  0.449019  1
  Mg  Mg17  1  0.488192  0.976384  0.250000  1
  Mg  Mg18  1  0.000000  0.000000  0.500000  1
  Mg  Mg19  1  0.511808  0.488192  0.750000  1
  Pd  Pd20  1  0.876522  0.123478  0.750000  1
  Pd  Pd21  1  0.123478  0.246956  0.250000  1
  Pd  Pd22  1  0.123478  0.876522  0.250000  1
  Pd  Pd23  1  0.753044  0.876522  0.250000  1
  Pd  Pd24  1  0.246956  0.123478  0.750000  1
  Pd  Pd25  1  0.876522  0.753044  0.750000  1
  Pd  Pd26  1  0.666667  0.333333  0.750000  1
  Pd  Pd27  1  0.333333  0.666667  0.250000  1
