# generated using pymatgen
data_Ca(PPd)2
_symmetry_space_group_name_H-M   'P 1'
_cell_length_a   4.18614532
_cell_length_b   4.18614532
_cell_length_c   5.69054175
_cell_angle_alpha   111.58099111
_cell_angle_beta   111.58099113
_cell_angle_gamma   90.00000002
_symmetry_Int_Tables_number   1
_chemical_formula_structural   Ca(PPd)2
_chemical_formula_sum   'Ca1 P2 Pd2'
_cell_volume   85.16709806
_cell_formula_units_Z   1
loop_
 _symmetry_equiv_pos_site_id
 _symmetry_equiv_pos_as_xyz
  1  'x, y, z'
loop_
 _atom_site_type_symbol
 _atom_site_label
 _atom_site_symmetry_multiplicity
 _atom_site_fract_x
 _atom_site_fract_y
 _atom_site_fract_z
 _atom_site_occupancy
  P  P0  1  0.612336  0.612336  0.224673  1
  P  P1  1  0.387664  0.387664  0.775327  1
  Ca  Ca2  1  0.000000  0.000000  0.000000  1
  Pd  Pd3  1  0.250000  0.750000  0.500000  1
  Pd  Pd4  1  0.750000  0.250000  0.500000  1
