# generated using pymatgen
data_KBe2BO3F2
_symmetry_space_group_name_H-M   'P 1'
_cell_length_a   4.45595486
_cell_length_b   4.45560742
_cell_length_c   6.97290121
_cell_angle_alpha   71.39648351
_cell_angle_beta   71.36613528
_cell_angle_gamma   59.99742040
_symmetry_Int_Tables_number   1
_chemical_formula_structural   KBe2BO3F2
_chemical_formula_sum   'K1 Be2 B1 O3 F2'
_cell_volume   111.44508548
_cell_formula_units_Z   1
loop_
 _symmetry_equiv_pos_site_id
 _symmetry_equiv_pos_as_xyz
  1  'x, y, z'
loop_
 _atom_site_type_symbol
 _atom_site_label
 _atom_site_symmetry_multiplicity
 _atom_site_fract_x
 _atom_site_fract_y
 _atom_site_fract_z
 _atom_site_occupancy
  Be  Be0  1  0.188592  0.196475  0.410989  1
  Be  Be1  1  0.796056  0.803525  0.589011  1
  B  B2  1  0.491986  0.500000  0.500000  1
  O  O3  1  0.801334  0.500000  0.500000  1
  O  O4  1  0.491546  0.190277  0.500885  1
  O  O5  1  0.182708  0.809723  0.499115  1
  F  F6  1  0.269221  0.276584  0.172878  1
  F  F7  1  0.718684  0.723416  0.827122  1
  K  K8  1  0.994873  0.000000  0.000000  1
