# generated using pymatgen
data_N2
_symmetry_space_group_name_H-M   'P 1'
_cell_length_a   4.04319054
_cell_length_b   4.04319046
_cell_length_c   6.67069369
_cell_angle_alpha   90.00000000
_cell_angle_beta   90.00000000
_cell_angle_gamma   120.00000064
_symmetry_Int_Tables_number   1
_chemical_formula_structural   N2
_chemical_formula_sum   N4
_cell_volume   94.43870785
_cell_formula_units_Z   2
loop_
 _symmetry_equiv_pos_site_id
 _symmetry_equiv_pos_as_xyz
  1  'x, y, z'
loop_
 _atom_site_type_symbol
 _atom_site_label
 _atom_site_symmetry_multiplicity
 _atom_site_fract_x
 _atom_site_fract_y
 _atom_site_fract_z
 _atom_site_occupancy
  N  N0  1  0.333333  0.666667  0.333512  1
  N  N1  1  0.333333  0.666667  0.166488  1
  N  N2  1  0.666667  0.333333  0.833512  1
  N  N3  1  0.666667  0.333333  0.666488  1
