# generated using pymatgen
data_NbCrW
_symmetry_space_group_name_H-M   'P 1'
_cell_length_a   4.30252319
_cell_length_b   4.30253535
_cell_length_c   4.30253118
_cell_angle_alpha   59.99962705
_cell_angle_beta   59.99963249
_cell_angle_gamma   59.99985234
_symmetry_Int_Tables_number   1
_chemical_formula_structural   NbCrW
_chemical_formula_sum   'Nb1 Cr1 W1'
_cell_volume   56.31885040
_cell_formula_units_Z   1
loop_
 _symmetry_equiv_pos_site_id
 _symmetry_equiv_pos_as_xyz
  1  'x, y, z'
loop_
 _atom_site_type_symbol
 _atom_site_label
 _atom_site_symmetry_multiplicity
 _atom_site_fract_x
 _atom_site_fract_y
 _atom_site_fract_z
 _atom_site_occupancy
  Nb  Nb0  1  0.499998  0.500001  0.500002  1
  Cr  Cr1  1  0.000000  -0.000003  -0.000001  1
  W  W2  1  0.250001  0.250002  0.249999  1
