# generated using pymatgen
data_Li
_symmetry_space_group_name_H-M   'P 1'
_cell_length_a   4.45758570
_cell_length_b   4.45758562
_cell_length_c   4.45758584
_cell_angle_alpha   90.00000771
_cell_angle_beta   90.00000643
_cell_angle_gamma   90.00000244
_symmetry_Int_Tables_number   1
_chemical_formula_structural   Li
_chemical_formula_sum   Li4
_cell_volume   88.57254230
_cell_formula_units_Z   4
loop_
 _symmetry_equiv_pos_site_id
 _symmetry_equiv_pos_as_xyz
  1  'x, y, z'
loop_
 _atom_site_type_symbol
 _atom_site_label
 _atom_site_symmetry_multiplicity
 _atom_site_fract_x
 _atom_site_fract_y
 _atom_site_fract_z
 _atom_site_occupancy
  Li  Li0  1  0.874978  0.125022  0.625022  1
  Li  Li1  1  0.374978  0.374978  0.374978  1
  Li  Li2  1  0.125022  0.625022  0.874978  1
  Li  Li3  1  0.625022  0.874978  0.125022  1
