# generated using pymatgen
data_Dy(AlSi)2
_symmetry_space_group_name_H-M   'P 1'
_cell_length_a   4.20728990
_cell_length_b   4.20728990
_cell_length_c   6.55551546
_cell_angle_alpha   90.00000000
_cell_angle_beta   90.00000000
_cell_angle_gamma   120.00000003
_symmetry_Int_Tables_number   1
_chemical_formula_structural   Dy(AlSi)2
_chemical_formula_sum   'Dy1 Al2 Si2'
_cell_volume   100.49451363
_cell_formula_units_Z   1
loop_
 _symmetry_equiv_pos_site_id
 _symmetry_equiv_pos_as_xyz
  1  'x, y, z'
loop_
 _atom_site_type_symbol
 _atom_site_label
 _atom_site_symmetry_multiplicity
 _atom_site_fract_x
 _atom_site_fract_y
 _atom_site_fract_z
 _atom_site_occupancy
  Al  Al0  1  0.666667  0.333333  0.354680  1
  Al  Al1  1  0.333333  0.666667  0.645320  1
  Si  Si2  1  0.666667  0.333333  0.740600  1
  Si  Si3  1  0.333333  0.666667  0.259400  1
  Dy  Dy4  1  0.000000  0.000000  0.000000  1
