# generated using pymatgen
data_GdOF
_symmetry_space_group_name_H-M   'P 1'
_cell_length_a   3.88891061
_cell_length_b   6.87243323
_cell_length_c   3.88891058
_cell_angle_alpha   106.43548558
_cell_angle_beta   59.99999132
_cell_angle_gamma   106.43548707
_symmetry_Int_Tables_number   1
_chemical_formula_structural   GdOF
_chemical_formula_sum   'Gd2 O2 F2'
_cell_volume   85.07202828
_cell_formula_units_Z   2
loop_
 _symmetry_equiv_pos_site_id
 _symmetry_equiv_pos_as_xyz
  1  'x, y, z'
loop_
 _atom_site_type_symbol
 _atom_site_label
 _atom_site_symmetry_multiplicity
 _atom_site_fract_x
 _atom_site_fract_y
 _atom_site_fract_z
 _atom_site_occupancy
  Gd  Gd0  1  0.240867  0.722600  0.240867  1
  Gd  Gd1  1  0.759133  0.277400  0.759133  1
  O  O2  1  0.122444  0.367331  0.122444  1
  O  O3  1  0.877556  0.632669  0.877556  1
  F  F4  1  0.370443  0.111330  0.370443  1
  F  F5  1  0.629557  0.888670  0.629557  1
