# generated using pymatgen
data_K2PdF6
_symmetry_space_group_name_H-M   'P 1'
_cell_length_a   5.85354737
_cell_length_b   5.85354738
_cell_length_c   4.78871046
_cell_angle_alpha   90.00000000
_cell_angle_beta   90.00000000
_cell_angle_gamma   120.00000002
_symmetry_Int_Tables_number   1
_chemical_formula_structural   K2PdF6
_chemical_formula_sum   'K2 Pd1 F6'
_cell_volume   142.09784306
_cell_formula_units_Z   1
loop_
 _symmetry_equiv_pos_site_id
 _symmetry_equiv_pos_as_xyz
  1  'x, y, z'
loop_
 _atom_site_type_symbol
 _atom_site_label
 _atom_site_symmetry_multiplicity
 _atom_site_fract_x
 _atom_site_fract_y
 _atom_site_fract_z
 _atom_site_occupancy
  F  F0  1  0.838319  0.161681  0.777381  1
  F  F1  1  0.838319  0.676639  0.777381  1
  F  F2  1  0.323361  0.161681  0.777381  1
  F  F3  1  0.161681  0.838319  0.222619  1
  F  F4  1  0.161681  0.323361  0.222619  1
  F  F5  1  0.676639  0.838319  0.222619  1
  K  K6  1  0.333333  0.666667  0.718461  1
  K  K7  1  0.666667  0.333333  0.281539  1
  Pd  Pd8  1  0.000000  0.000000  0.000000  1
