# generated using pymatgen
data_LiCuS
_symmetry_space_group_name_H-M   'P 1'
_cell_length_a   4.76447386
_cell_length_b   7.57352660
_cell_length_c   7.57352660
_cell_angle_alpha   95.67815880
_cell_angle_beta   108.33352742
_cell_angle_gamma   71.66647258
_symmetry_Int_Tables_number   1
_chemical_formula_structural   LiCuS
_chemical_formula_sum   'Li4 Cu4 S4'
_cell_volume   246.24349360
_cell_formula_units_Z   4
loop_
 _symmetry_equiv_pos_site_id
 _symmetry_equiv_pos_as_xyz
  1  'x, y, z'
loop_
 _atom_site_type_symbol
 _atom_site_label
 _atom_site_symmetry_multiplicity
 _atom_site_fract_x
 _atom_site_fract_y
 _atom_site_fract_z
 _atom_site_occupancy
  Li  Li0  1  0.249593  0.156319  0.155505  1
  Li  Li1  1  0.905912  0.844495  0.156319  1
  Li  Li2  1  0.594088  0.155505  0.843681  1
  Li  Li3  1  0.250407  0.843681  0.844495  1
  Cu  Cu4  1  0.894991  0.209668  0.499648  1
  Cu  Cu5  1  0.604659  0.500352  0.209668  1
  Cu  Cu6  1  0.895341  0.499648  0.790332  1
  Cu  Cu7  1  0.605009  0.790332  0.500352  1
  S  S8  1  0.749631  0.202422  0.201685  1
  S  S9  1  0.452053  0.798315  0.202422  1
  S  S10  1  0.047947  0.201685  0.797578  1
  S  S11  1  0.750369  0.797578  0.798315  1
