# generated using pymatgen
data_BaTiS3
_symmetry_space_group_name_H-M   'P 1'
_cell_length_a   6.81372297
_cell_length_b   6.81372296
_cell_length_c   5.83725599
_cell_angle_alpha   90.00000000
_cell_angle_beta   90.00000000
_cell_angle_gamma   119.99999999
_symmetry_Int_Tables_number   1
_chemical_formula_structural   BaTiS3
_chemical_formula_sum   'Ba2 Ti2 S6'
_cell_volume   234.69741980
_cell_formula_units_Z   2
loop_
 _symmetry_equiv_pos_site_id
 _symmetry_equiv_pos_as_xyz
  1  'x, y, z'
loop_
 _atom_site_type_symbol
 _atom_site_label
 _atom_site_symmetry_multiplicity
 _atom_site_fract_x
 _atom_site_fract_y
 _atom_site_fract_z
 _atom_site_occupancy
  S  S0  1  0.669379  0.834689  0.250000  1
  S  S1  1  0.165311  0.834689  0.250000  1
  S  S2  1  0.165311  0.330621  0.250000  1
  S  S3  1  0.834689  0.669379  0.750000  1
  S  S4  1  0.330621  0.165311  0.750000  1
  S  S5  1  0.834689  0.165311  0.750000  1
  Ti  Ti6  1  0.000000  0.000000  0.000000  1
  Ti  Ti7  1  0.000000  0.000000  0.500000  1
  Ba  Ba8  1  0.666667  0.333333  0.250000  1
  Ba  Ba9  1  0.333333  0.666667  0.750000  1
