# generated using pymatgen
data_RbFeSe2
_symmetry_space_group_name_H-M   'P 1'
_cell_length_a   5.67201548
_cell_length_b   7.14390994
_cell_length_c   7.14390994
_cell_angle_alpha   116.18035525
_cell_angle_beta   101.26223212
_cell_angle_gamma   101.26223214
_symmetry_Int_Tables_number   1
_chemical_formula_structural   RbFeSe2
_chemical_formula_sum   'Rb2 Fe2 Se4'
_cell_volume   241.39479432
_cell_formula_units_Z   2
loop_
 _symmetry_equiv_pos_site_id
 _symmetry_equiv_pos_as_xyz
  1  'x, y, z'
loop_
 _atom_site_type_symbol
 _atom_site_label
 _atom_site_symmetry_multiplicity
 _atom_site_fract_x
 _atom_site_fract_y
 _atom_site_fract_z
 _atom_site_occupancy
  Fe  Fe0  1  0.750000  0.001382  0.998618  1
  Fe  Fe1  1  0.250000  0.998618  0.001382  1
  Se  Se2  1  0.906034  0.702471  0.919330  1
  Se  Se3  1  0.406034  0.919330  0.702471  1
  Se  Se4  1  0.593966  0.080670  0.297529  1
  Se  Se5  1  0.093966  0.297529  0.080670  1
  Rb  Rb6  1  0.750000  0.640245  0.359755  1
  Rb  Rb7  1  0.250000  0.359755  0.640245  1
