# generated using pymatgen
data_HoI3
_symmetry_space_group_name_H-M   'P 1'
_cell_length_a   11.75706687
_cell_length_b   11.75706846
_cell_length_c   3.97806717
_cell_angle_alpha   90.00000000
_cell_angle_beta   90.00000000
_cell_angle_gamma   119.99999550
_symmetry_Int_Tables_number   1
_chemical_formula_structural   HoI3
_chemical_formula_sum   'Ho2 I6'
_cell_volume   476.21250844
_cell_formula_units_Z   2
loop_
 _symmetry_equiv_pos_site_id
 _symmetry_equiv_pos_as_xyz
  1  'x, y, z'
loop_
 _atom_site_type_symbol
 _atom_site_label
 _atom_site_symmetry_multiplicity
 _atom_site_fract_x
 _atom_site_fract_y
 _atom_site_fract_z
 _atom_site_occupancy
  Ho  Ho0  1  0.333334  0.666668  0.750002  1
  Ho  Ho1  1  0.666667  0.333332  0.250001  1
  I  I2  1  0.219878  0.439757  0.250001  1
  I  I3  1  0.560243  0.780122  0.250001  1
  I  I4  1  0.219878  0.780122  0.250001  1
  I  I5  1  0.780122  0.560243  0.750002  1
  I  I6  1  0.439757  0.219878  0.750002  1
  I  I7  1  0.780122  0.219878  0.750002  1
