# generated using pymatgen
data_Tm2MgGe2
_symmetry_space_group_name_H-M   'P 1'
_cell_length_a   7.19614035
_cell_length_b   7.19614035
_cell_length_c   4.20008389
_cell_angle_alpha   90.00000000
_cell_angle_beta   90.00000000
_cell_angle_gamma   90.00000000
_symmetry_Int_Tables_number   1
_chemical_formula_structural   Tm2MgGe2
_chemical_formula_sum   'Tm4 Mg2 Ge4'
_cell_volume   217.49897513
_cell_formula_units_Z   2
loop_
 _symmetry_equiv_pos_site_id
 _symmetry_equiv_pos_as_xyz
  1  'x, y, z'
loop_
 _atom_site_type_symbol
 _atom_site_label
 _atom_site_symmetry_multiplicity
 _atom_site_fract_x
 _atom_site_fract_y
 _atom_site_fract_z
 _atom_site_occupancy
  Tm  Tm0  1  0.323032  0.176968  0.500001  1
  Tm  Tm1  1  0.823032  0.323032  0.500001  1
  Tm  Tm2  1  0.176968  0.676968  0.500001  1
  Tm  Tm3  1  0.676968  0.823032  0.500001  1
  Mg  Mg4  1  0.000000  0.000000  0.000000  1
  Mg  Mg5  1  0.500001  0.500001  0.000000  1
  Ge  Ge6  1  0.624606  0.124607  0.000000  1
  Ge  Ge7  1  0.124607  0.375394  0.000000  1
  Ge  Ge8  1  0.875393  0.624606  0.000000  1
  Ge  Ge9  1  0.375394  0.875393  0.000000  1
