# generated using pymatgen
data_SiP
_symmetry_space_group_name_H-M   'P 1'
_cell_length_a   3.76599760
_cell_length_b   3.76599760
_cell_length_c   3.76599760
_cell_angle_alpha   59.99999996
_cell_angle_beta   59.99999998
_cell_angle_gamma   60.00000002
_symmetry_Int_Tables_number   1
_chemical_formula_structural   SiP
_chemical_formula_sum   'Si1 P1'
_cell_volume   37.76809832
_cell_formula_units_Z   1
loop_
 _symmetry_equiv_pos_site_id
 _symmetry_equiv_pos_as_xyz
  1  'x, y, z'
loop_
 _atom_site_type_symbol
 _atom_site_label
 _atom_site_symmetry_multiplicity
 _atom_site_fract_x
 _atom_site_fract_y
 _atom_site_fract_z
 _atom_site_occupancy
  Si  Si0  1  0.000000  0.000000  0.000000  1
  P  P1  1  0.250000  0.250000  0.250000  1
