# generated using pymatgen
data_DyCoSi2
_symmetry_space_group_name_H-M   'P 1'
_cell_length_a   3.99049160
_cell_length_b   4.02404649
_cell_length_c   8.35070013
_cell_angle_alpha   103.94206591
_cell_angle_beta   90.00000000
_cell_angle_gamma   90.00000000
_symmetry_Int_Tables_number   1
_chemical_formula_structural   DyCoSi2
_chemical_formula_sum   'Dy2 Co2 Si4'
_cell_volume   130.14444926
_cell_formula_units_Z   2
loop_
 _symmetry_equiv_pos_site_id
 _symmetry_equiv_pos_as_xyz
  1  'x, y, z'
loop_
 _atom_site_type_symbol
 _atom_site_label
 _atom_site_symmetry_multiplicity
 _atom_site_fract_x
 _atom_site_fract_y
 _atom_site_fract_z
 _atom_site_occupancy
  Si  Si0  1  0.750000  0.750086  0.500172  1
  Si  Si1  1  0.250000  0.249914  0.499828  1
  Si  Si2  1  0.750000  0.457498  0.914996  1
  Si  Si3  1  0.250000  0.542502  0.085004  1
  Co  Co4  1  0.250000  0.679438  0.358876  1
  Co  Co5  1  0.750000  0.320562  0.641124  1
  Dy  Dy6  1  0.250000  0.892847  0.785694  1
  Dy  Dy7  1  0.750000  0.107153  0.214306  1
