# generated using pymatgen
data_LuBr3
_symmetry_space_group_name_H-M   'P 1'
_cell_length_a   10.47030927
_cell_length_b   10.47031085
_cell_length_c   3.64911464
_cell_angle_alpha   90.00000000
_cell_angle_beta   90.00000000
_cell_angle_gamma   119.99998947
_symmetry_Int_Tables_number   1
_chemical_formula_structural   LuBr3
_chemical_formula_sum   'Lu2 Br6'
_cell_volume   346.44737146
_cell_formula_units_Z   2
loop_
 _symmetry_equiv_pos_site_id
 _symmetry_equiv_pos_as_xyz
  1  'x, y, z'
loop_
 _atom_site_type_symbol
 _atom_site_label
 _atom_site_symmetry_multiplicity
 _atom_site_fract_x
 _atom_site_fract_y
 _atom_site_fract_z
 _atom_site_occupancy
  Lu  Lu0  1  0.333333  0.666666  0.750001  1
  Lu  Lu1  1  0.666668  0.333333  0.250000  1
  Br  Br2  1  0.218270  0.436541  0.250000  1
  Br  Br3  1  0.563459  0.781730  0.250000  1
  Br  Br4  1  0.218271  0.781730  0.250000  1
  Br  Br5  1  0.781730  0.563460  0.750001  1
  Br  Br6  1  0.436540  0.218270  0.750001  1
  Br  Br7  1  0.781730  0.218270  0.750001  1
