# generated using pymatgen
data_CdAgPd2
_symmetry_space_group_name_H-M   'P 1'
_cell_length_a   4.59529070
_cell_length_b   4.59529090
_cell_length_c   4.59529128
_cell_angle_alpha   60.00001894
_cell_angle_beta   60.00002820
_cell_angle_gamma   60.00003410
_symmetry_Int_Tables_number   1
_chemical_formula_structural   CdAgPd2
_chemical_formula_sum   'Cd1 Ag1 Pd2'
_cell_volume   68.61582870
_cell_formula_units_Z   1
loop_
 _symmetry_equiv_pos_site_id
 _symmetry_equiv_pos_as_xyz
  1  'x, y, z'
loop_
 _atom_site_type_symbol
 _atom_site_label
 _atom_site_symmetry_multiplicity
 _atom_site_fract_x
 _atom_site_fract_y
 _atom_site_fract_z
 _atom_site_occupancy
  Cd  Cd0  1  0.750000  0.750000  0.750000  1
  Ag  Ag1  1  0.249999  0.249999  0.249999  1
  Pd  Pd2  1  0.000000  1.000000  1.000000  1
  Pd  Pd3  1  0.500001  0.500001  0.500001  1
