# generated using pymatgen
data_LiNiO2
_symmetry_space_group_name_H-M   'P 1'
_cell_length_a   5.03169256
_cell_length_b   8.73909359
_cell_length_c   5.03531955
_cell_angle_alpha   90.00000000
_cell_angle_beta   80.90263961
_cell_angle_gamma   150.27381172
_symmetry_Int_Tables_number   1
_chemical_formula_structural   LiNiO2
_chemical_formula_sum   'Li3 Ni3 O6'
_cell_volume   104.05886093
_cell_formula_units_Z   3
loop_
 _symmetry_equiv_pos_site_id
 _symmetry_equiv_pos_as_xyz
  1  'x, y, z'
loop_
 _atom_site_type_symbol
 _atom_site_label
 _atom_site_symmetry_multiplicity
 _atom_site_fract_x
 _atom_site_fract_y
 _atom_site_fract_z
 _atom_site_occupancy
  Li  Li0  1  0.999225  0.999613  0.000061  1
  Li  Li1  1  0.000575  0.333902  0.000036  1
  Li  Li2  1  0.000575  0.666673  0.000036  1
  Ni  Ni3  1  0.999711  0.166262  0.499941  1
  Ni  Ni4  1  0.999711  0.833450  0.499941  1
  Ni  Ni5  1  0.000211  0.500105  0.500028  1
  O  O6  1  0.458456  0.229228  0.269983  1
  O  O7  1  0.510491  0.927646  0.277563  1
  O  O8  1  0.510491  0.582846  0.277563  1
  O  O9  1  0.490712  0.072557  0.721718  1
  O  O10  1  0.490712  0.418154  0.721718  1
  O  O11  1  0.539266  0.769633  0.731298  1
