# generated using pymatgen
data_Te4Pt3
_symmetry_space_group_name_H-M   'P 1'
_cell_length_a   4.04722088
_cell_length_b   4.04722096
_cell_length_c   12.33703408
_cell_angle_alpha   80.90765076
_cell_angle_beta   80.90765059
_cell_angle_gamma   60.05563415
_symmetry_Int_Tables_number   1
_chemical_formula_structural   Te4Pt3
_chemical_formula_sum   'Te4 Pt3'
_cell_volume   172.16342341
_cell_formula_units_Z   1
loop_
 _symmetry_equiv_pos_site_id
 _symmetry_equiv_pos_as_xyz
  1  'x, y, z'
loop_
 _atom_site_type_symbol
 _atom_site_label
 _atom_site_symmetry_multiplicity
 _atom_site_fract_x
 _atom_site_fract_y
 _atom_site_fract_z
 _atom_site_occupancy
  Te  Te0  1  0.949347  0.949347  0.161289  1
  Te  Te1  1  0.050653  0.050653  0.838711  1
  Te  Te2  1  0.797199  0.797199  0.613831  1
  Te  Te3  1  0.202801  0.202801  0.386169  1
  Pt  Pt4  1  0.647699  0.647699  0.060844  1
  Pt  Pt5  1  0.500000  0.500000  0.500000  1
  Pt  Pt6  1  0.352301  0.352301  0.939156  1
