# generated using pymatgen
data_Ca3CrN3
_symmetry_space_group_name_H-M   'P 1'
_cell_length_a   5.06085273
_cell_length_b   6.64972051
_cell_length_c   6.64972051
_cell_angle_alpha   101.23802745
_cell_angle_beta   90.00000000
_cell_angle_gamma   90.00000000
_symmetry_Int_Tables_number   1
_chemical_formula_structural   Ca3CrN3
_chemical_formula_sum   'Ca6 Cr2 N6'
_cell_volume   219.49390460
_cell_formula_units_Z   2
loop_
 _symmetry_equiv_pos_site_id
 _symmetry_equiv_pos_as_xyz
  1  'x, y, z'
loop_
 _atom_site_type_symbol
 _atom_site_label
 _atom_site_symmetry_multiplicity
 _atom_site_fract_x
 _atom_site_fract_y
 _atom_site_fract_z
 _atom_site_occupancy
  N  N0  1  0.750000  0.434314  0.181990  1
  N  N1  1  0.250000  0.126978  0.873022  1
  N  N2  1  0.750000  0.873022  0.126978  1
  N  N3  1  0.250000  0.181990  0.434314  1
  N  N4  1  0.250000  0.565686  0.818010  1
  N  N5  1  0.750000  0.818010  0.565686  1
  Ca  Ca6  1  0.250000  0.404433  0.169510  1
  Ca  Ca7  1  0.750000  0.106778  0.893222  1
  Ca  Ca8  1  0.750000  0.169510  0.404433  1
  Ca  Ca9  1  0.250000  0.893222  0.106778  1
  Ca  Ca10  1  0.750000  0.595567  0.830490  1
  Ca  Ca11  1  0.250000  0.830490  0.595567  1
  Cr  Cr12  1  0.750000  0.695795  0.304205  1
  Cr  Cr13  1  0.250000  0.304205  0.695795  1
