# generated using pymatgen
data_Pr2CuRu
_symmetry_space_group_name_H-M   'P 1'
_cell_length_a   5.06700525
_cell_length_b   5.06699833
_cell_length_c   5.06701486
_cell_angle_alpha   59.99934425
_cell_angle_beta   59.99928207
_cell_angle_gamma   59.99948209
_symmetry_Int_Tables_number   1
_chemical_formula_structural   Pr2CuRu
_chemical_formula_sum   'Pr2 Cu1 Ru1'
_cell_volume   91.98840465
_cell_formula_units_Z   1
loop_
 _symmetry_equiv_pos_site_id
 _symmetry_equiv_pos_as_xyz
  1  'x, y, z'
loop_
 _atom_site_type_symbol
 _atom_site_label
 _atom_site_symmetry_multiplicity
 _atom_site_fract_x
 _atom_site_fract_y
 _atom_site_fract_z
 _atom_site_occupancy
  Pr  Pr0  1  1.000000  0.000002  0.999998  1
  Pr  Pr1  1  0.499999  0.499998  0.499999  1
  Cu  Cu2  1  0.249999  0.250000  0.250000  1
  Ru  Ru3  1  0.750001  0.749999  0.750002  1
