# generated using pymatgen
data_Na5ReO6
_symmetry_space_group_name_H-M   'P 1'
_cell_length_a   5.65477944
_cell_length_b   5.65477972
_cell_length_c   5.66355600
_cell_angle_alpha   100.53633102
_cell_angle_beta   100.53633163
_cell_angle_gamma   118.74773360
_symmetry_Int_Tables_number   1
_chemical_formula_structural   Na5ReO6
_chemical_formula_sum   'Na5 Re1 O6'
_cell_volume   148.19814257
_cell_formula_units_Z   1
loop_
 _symmetry_equiv_pos_site_id
 _symmetry_equiv_pos_as_xyz
  1  'x, y, z'
loop_
 _atom_site_type_symbol
 _atom_site_label
 _atom_site_symmetry_multiplicity
 _atom_site_fract_x
 _atom_site_fract_y
 _atom_site_fract_z
 _atom_site_occupancy
  Na  Na0  1  0.665025  0.334975  0.000000  1
  Na  Na1  1  0.826462  0.173538  0.500000  1
  Na  Na2  1  0.334975  0.665025  1.000000  1
  Na  Na3  1  0.173538  0.826462  0.500000  1
  Na  Na4  1  0.500000  0.500000  0.500000  1
  Re  Re5  1  0.000000  0.000000  0.000000  1
  O  O6  1  0.798292  0.798292  0.203282  1
  O  O7  1  0.201708  0.201708  0.796718  1
  O  O8  1  0.931036  0.651921  0.785462  1
  O  O9  1  0.348079  0.068964  0.214538  1
  O  O10  1  0.068964  0.348079  0.214538  1
  O  O11  1  0.651921  0.931036  0.785462  1
