# generated using pymatgen
data_C
_symmetry_space_group_name_H-M   'P 1'
_cell_length_a   2.46807045
_cell_length_b   2.46811824
_cell_length_c   4.17648835
_cell_angle_alpha   81.50122837
_cell_angle_beta   72.81416644
_cell_angle_gamma   60.00065384
_symmetry_Int_Tables_number   1
_chemical_formula_structural   C
_chemical_formula_sum   C2
_cell_volume   21.04899898
_cell_formula_units_Z   2
loop_
 _symmetry_equiv_pos_site_id
 _symmetry_equiv_pos_as_xyz
  1  'x, y, z'
loop_
 _atom_site_type_symbol
 _atom_site_label
 _atom_site_symmetry_multiplicity
 _atom_site_fract_x
 _atom_site_fract_y
 _atom_site_fract_z
 _atom_site_occupancy
  C  C0  1  0.166706  0.666668  0.499916  1
  C  C1  1  0.833290  0.333332  0.500084  1
