# generated using pymatgen
data_Na3C
_symmetry_space_group_name_H-M   'P 1'
_cell_length_a   4.71500654
_cell_length_b   4.71500654
_cell_length_c   4.71500654
_cell_angle_alpha   121.23688745
_cell_angle_beta   121.23688745
_cell_angle_gamma   87.87067468
_symmetry_Int_Tables_number   1
_chemical_formula_structural   Na3C
_chemical_formula_sum   'Na3 C1'
_cell_volume   72.67918833
_cell_formula_units_Z   1
loop_
 _symmetry_equiv_pos_site_id
 _symmetry_equiv_pos_as_xyz
  1  'x, y, z'
loop_
 _atom_site_type_symbol
 _atom_site_label
 _atom_site_symmetry_multiplicity
 _atom_site_fract_x
 _atom_site_fract_y
 _atom_site_fract_z
 _atom_site_occupancy
  Na  Na0  1  0.749999  0.250000  0.500000  1
  Na  Na1  1  0.250000  0.749999  0.500000  1
  Na  Na2  1  0.500001  0.500001  -0.000000  1
  C  C3  1  0.000000  0.000000  -0.000000  1
