# generated using pymatgen
data_AlP
_symmetry_space_group_name_H-M   'P 1'
_cell_length_a   7.74877579
_cell_length_b   7.74822330
_cell_length_c   12.13431457
_cell_angle_alpha   90.00000000
_cell_angle_beta   90.00000000
_cell_angle_gamma   89.99898815
_symmetry_Int_Tables_number   1
_chemical_formula_structural   AlP
_chemical_formula_sum   'Al4 P4'
_cell_volume   728.53508681
_cell_formula_units_Z   4
loop_
 _symmetry_equiv_pos_site_id
 _symmetry_equiv_pos_as_xyz
  1  'x, y, z'
loop_
 _atom_site_type_symbol
 _atom_site_label
 _atom_site_symmetry_multiplicity
 _atom_site_fract_x
 _atom_site_fract_y
 _atom_site_fract_z
 _atom_site_occupancy
  Al  Al0  1  0.360724  0.640311  0.500000  1
  Al  Al1  1  0.141279  0.140311  0.500000  1
  Al  Al2  1  0.860721  0.859689  0.500000  1
  Al  Al3  1  0.641276  0.359689  0.500000  1
  P  P4  1  0.155331  0.845697  0.500000  1
  P  P5  1  0.846669  0.154303  0.500000  1
  P  P6  1  0.655328  0.654304  0.500000  1
  P  P7  1  0.346672  0.345696  0.500000  1
