# generated using pymatgen
data_WS2
_symmetry_space_group_name_H-M   'P 1'
_cell_length_a   7.35547866
_cell_length_b   7.35547866
_cell_length_c   7.35547866
_cell_angle_alpha   25.05607368
_cell_angle_beta   25.05607366
_cell_angle_gamma   25.05607366
_symmetry_Int_Tables_number   1
_chemical_formula_structural   WS2
_chemical_formula_sum   'W1 S2'
_cell_volume   62.79752670
_cell_formula_units_Z   1
loop_
 _symmetry_equiv_pos_site_id
 _symmetry_equiv_pos_as_xyz
  1  'x, y, z'
loop_
 _atom_site_type_symbol
 _atom_site_label
 _atom_site_symmetry_multiplicity
 _atom_site_fract_x
 _atom_site_fract_y
 _atom_site_fract_z
 _atom_site_occupancy
  S  S0  1  0.407603  0.407603  0.407603  1
  S  S1  1  0.260430  0.260430  0.260430  1
  W  W2  1  0.000667  0.000667  0.000667  1
