# generated using pymatgen
data_MgHg5
_symmetry_space_group_name_H-M   'P 1'
_cell_length_a   3.58069038
_cell_length_b   8.66672723
_cell_length_c   5.07639148
_cell_angle_alpha   90.00000000
_cell_angle_beta   90.00000000
_cell_angle_gamma   78.07818539
_symmetry_Int_Tables_number   1
_chemical_formula_structural   MgHg5
_chemical_formula_sum   'Mg1 Hg5'
_cell_volume   154.13701501
_cell_formula_units_Z   1
loop_
 _symmetry_equiv_pos_site_id
 _symmetry_equiv_pos_as_xyz
  1  'x, y, z'
loop_
 _atom_site_type_symbol
 _atom_site_label
 _atom_site_symmetry_multiplicity
 _atom_site_fract_x
 _atom_site_fract_y
 _atom_site_fract_z
 _atom_site_occupancy
  Mg  Mg0  1  0.779524  0.440952  0.499999  1
  Hg  Hg1  1  0.325577  0.348850  0.000000  1
  Hg  Hg2  1  0.666239  0.667524  0.000000  1
  Hg  Hg3  1  0.001215  0.997568  0.000000  1
  Hg  Hg4  1  0.439792  0.120420  0.499999  1
  Hg  Hg5  1  0.120991  0.758022  0.499999  1
