# generated using pymatgen
data_NbS2
_symmetry_space_group_name_H-M   'P 1'
_cell_length_a   7.08746250
_cell_length_b   7.08746250
_cell_length_c   7.08746250
_cell_angle_alpha   27.40309567
_cell_angle_beta   27.40309566
_cell_angle_gamma   27.40309570
_symmetry_Int_Tables_number   1
_chemical_formula_structural   NbS2
_chemical_formula_sum   'Nb1 S2'
_cell_volume   66.55471535
_cell_formula_units_Z   1
loop_
 _symmetry_equiv_pos_site_id
 _symmetry_equiv_pos_as_xyz
  1  'x, y, z'
loop_
 _atom_site_type_symbol
 _atom_site_label
 _atom_site_symmetry_multiplicity
 _atom_site_fract_x
 _atom_site_fract_y
 _atom_site_fract_z
 _atom_site_occupancy
  S  S0  1  0.409916  0.409916  0.409916  1
  S  S1  1  0.256654  0.256654  0.256654  1
  Nb  Nb2  1  0.999931  0.999931  0.999931  1
