# generated using pymatgen
data_Rh3Se
_symmetry_space_group_name_H-M   'P 1'
_cell_length_a   5.60028419
_cell_length_b   5.60028461
_cell_length_c   4.44881213
_cell_angle_alpha   90.00000000
_cell_angle_beta   90.00000000
_cell_angle_gamma   120.00000368
_symmetry_Int_Tables_number   1
_chemical_formula_structural   Rh3Se
_chemical_formula_sum   'Rh6 Se2'
_cell_volume   120.83558445
_cell_formula_units_Z   2
loop_
 _symmetry_equiv_pos_site_id
 _symmetry_equiv_pos_as_xyz
  1  'x, y, z'
loop_
 _atom_site_type_symbol
 _atom_site_label
 _atom_site_symmetry_multiplicity
 _atom_site_fract_x
 _atom_site_fract_y
 _atom_site_fract_z
 _atom_site_occupancy
  Rh  Rh0  1  0.164645  0.329289  0.250001  1
  Rh  Rh1  1  0.670711  0.835355  0.250001  1
  Rh  Rh2  1  0.164645  0.835355  0.250001  1
  Rh  Rh3  1  0.835357  0.670712  0.750001  1
  Rh  Rh4  1  0.329290  0.164644  0.750001  1
  Rh  Rh5  1  0.835355  0.164644  0.750001  1
  Se  Se6  1  0.333333  0.666667  0.750001  1
  Se  Se7  1  0.666667  0.333332  0.250001  1
