# generated using pymatgen
data_MgRh2Pb
_symmetry_space_group_name_H-M   'P 1'
_cell_length_a   4.57659707
_cell_length_b   4.57659999
_cell_length_c   4.57659600
_cell_angle_alpha   59.99998789
_cell_angle_beta   59.99995819
_cell_angle_gamma   59.99994495
_symmetry_Int_Tables_number   1
_chemical_formula_structural   MgRh2Pb
_chemical_formula_sum   'Mg1 Rh2 Pb1'
_cell_volume   67.78176214
_cell_formula_units_Z   1
loop_
 _symmetry_equiv_pos_site_id
 _symmetry_equiv_pos_as_xyz
  1  'x, y, z'
loop_
 _atom_site_type_symbol
 _atom_site_label
 _atom_site_symmetry_multiplicity
 _atom_site_fract_x
 _atom_site_fract_y
 _atom_site_fract_z
 _atom_site_occupancy
  Mg  Mg0  1  0.249999  0.249999  0.249999  1
  Rh  Rh1  1  1.000000  0.000000  0.000000  1
  Rh  Rh2  1  0.500000  0.500000  0.499999  1
  Pb  Pb3  1  0.749999  0.749999  0.749999  1
