# generated using pymatgen
data_H3Pb
_symmetry_space_group_name_H-M   'P 1'
_cell_length_a   3.87724267
_cell_length_b   3.87724267
_cell_length_c   3.87724267
_cell_angle_alpha   120.31125610
_cell_angle_beta   120.31125610
_cell_angle_gamma   89.46172879
_symmetry_Int_Tables_number   1
_chemical_formula_structural   H3Pb
_chemical_formula_sum   'H3 Pb1'
_cell_volume   41.01900885
_cell_formula_units_Z   1
loop_
 _symmetry_equiv_pos_site_id
 _symmetry_equiv_pos_as_xyz
  1  'x, y, z'
loop_
 _atom_site_type_symbol
 _atom_site_label
 _atom_site_symmetry_multiplicity
 _atom_site_fract_x
 _atom_site_fract_y
 _atom_site_fract_z
 _atom_site_occupancy
  H  H0  1  0.750000  0.249999  0.500001  1
  H  H1  1  0.249999  0.750000  0.500001  1
  H  H2  1  0.500000  0.500000  -0.000000  1
  Pb  Pb3  1  -0.000000  0.000000  0.000000  1
