# generated using pymatgen
data_TiMo
_symmetry_space_group_name_H-M   'P 1'
_cell_length_a   2.65416626
_cell_length_b   5.26563979
_cell_length_c   5.80527502
_cell_angle_alpha   116.96987695
_cell_angle_beta   103.21463413
_cell_angle_gamma   90.00000000
_symmetry_Int_Tables_number   1
_chemical_formula_structural   TiMo
_chemical_formula_sum   'Ti2 Mo2'
_cell_volume   69.89105520
_cell_formula_units_Z   2
loop_
 _symmetry_equiv_pos_site_id
 _symmetry_equiv_pos_as_xyz
  1  'x, y, z'
loop_
 _atom_site_type_symbol
 _atom_site_label
 _atom_site_symmetry_multiplicity
 _atom_site_fract_x
 _atom_site_fract_y
 _atom_site_fract_z
 _atom_site_occupancy
  Ti  Ti0  1  0.630940  0.880940  0.761881  1
  Ti  Ti1  1  0.369060  0.119060  0.238119  1
  Mo  Mo2  1  0.627715  0.377715  0.755431  1
  Mo  Mo3  1  0.372285  0.622285  0.244569  1
