# generated using pymatgen
data_YOsO3
_symmetry_space_group_name_H-M   'P 1'
_cell_length_a   3.96437662
_cell_length_b   3.96437222
_cell_length_c   3.96438456
_cell_angle_alpha   90.00004596
_cell_angle_beta   89.99988380
_cell_angle_gamma   90.00052868
_symmetry_Int_Tables_number   1
_chemical_formula_structural   YOsO3
_chemical_formula_sum   'Y1 Os1 O3'
_cell_volume   62.30531649
_cell_formula_units_Z   1
loop_
 _symmetry_equiv_pos_site_id
 _symmetry_equiv_pos_as_xyz
  1  'x, y, z'
loop_
 _atom_site_type_symbol
 _atom_site_label
 _atom_site_symmetry_multiplicity
 _atom_site_fract_x
 _atom_site_fract_y
 _atom_site_fract_z
 _atom_site_occupancy
  Y  Y0  1  0.000000  -0.000000  0.000000  1
  Os  Os1  1  0.500000  0.500000  0.500000  1
  O  O2  1  0.499999  0.499998  -0.000001  1
  O  O3  1  0.500000  0.000001  0.499999  1
  O  O4  1  -0.000002  0.499999  0.499999  1
