# generated using pymatgen
data_Tb2Si3
_symmetry_space_group_name_H-M   'P 1'
_cell_length_a   4.38024563
_cell_length_b   4.15544823
_cell_length_c   12.13565472
_cell_angle_alpha   99.85807623
_cell_angle_beta   90.00000000
_cell_angle_gamma   90.00000000
_symmetry_Int_Tables_number   1
_chemical_formula_structural   Tb2Si3
_chemical_formula_sum   'Tb4 Si6'
_cell_volume   217.63028195
_cell_formula_units_Z   2
loop_
 _symmetry_equiv_pos_site_id
 _symmetry_equiv_pos_as_xyz
  1  'x, y, z'
loop_
 _atom_site_type_symbol
 _atom_site_label
 _atom_site_symmetry_multiplicity
 _atom_site_fract_x
 _atom_site_fract_y
 _atom_site_fract_z
 _atom_site_occupancy
  Si  Si0  1  0.250000  0.481721  0.963442  1
  Si  Si1  1  0.750000  0.518279  0.036558  1
  Si  Si2  1  0.250000  0.836009  0.672018  1
  Si  Si3  1  0.750000  0.163991  0.327982  1
  Si  Si4  1  0.750000  0.067880  0.135760  1
  Si  Si5  1  0.250000  0.932120  0.864240  1
  Tb  Tb6  1  0.250000  0.252450  0.504900  1
  Tb  Tb7  1  0.750000  0.747550  0.495100  1
  Tb  Tb8  1  0.250000  0.615145  0.230290  1
  Tb  Tb9  1  0.750000  0.384855  0.769710  1
