# generated using pymatgen
data_Li(BH)5
_symmetry_space_group_name_H-M   'P 1'
_cell_length_a   7.04476413
_cell_length_b   7.04476413
_cell_length_c   14.92533031
_cell_angle_alpha   90.00000000
_cell_angle_beta   90.00000000
_cell_angle_gamma   120.00000084
_symmetry_Int_Tables_number   1
_chemical_formula_structural   Li(BH)5
_chemical_formula_sum   'Li6 B30 H30'
_cell_volume   641.48645806
_cell_formula_units_Z   6
loop_
 _symmetry_equiv_pos_site_id
 _symmetry_equiv_pos_as_xyz
  1  'x, y, z'
loop_
 _atom_site_type_symbol
 _atom_site_label
 _atom_site_symmetry_multiplicity
 _atom_site_fract_x
 _atom_site_fract_y
 _atom_site_fract_z
 _atom_site_occupancy
  Li  Li0  1  0.500000  0.000000  0.574231  1
  Li  Li1  1  0.500000  0.500000  0.240898  1
  Li  Li2  1  0.000000  0.500000  0.907564  1
  Li  Li3  1  0.500000  0.000000  0.092442  1
  Li  Li4  1  0.000000  0.500000  0.425775  1
  Li  Li5  1  0.500000  0.500000  0.759108  1
  B  B6  1  0.305045  0.652521  0.666674  1
  B  B7  1  0.347476  0.694955  0.333341  1
  B  B8  1  0.347479  0.652524  0.000007  1
  B  B9  1  0.694955  0.347479  0.666674  1
  B  B10  1  0.652521  0.347476  0.000007  1
  B  B11  1  0.652524  0.305045  0.333341  1
  B  B12  1  0.124779  0.731658  0.633647  1
  B  B13  1  0.606879  0.875221  0.300314  1
  B  B14  1  0.268342  0.393121  0.966980  1
  B  B15  1  0.875221  0.268342  0.633647  1
  B  B16  1  0.731658  0.606879  0.966980  1
  B  B17  1  0.393121  0.124779  0.300314  1
  B  B18  1  0.393118  0.268345  0.033033  1
  B  B19  1  0.731655  0.124773  0.366366  1
  B  B20  1  0.875227  0.606882  0.699699  1
  B  B21  1  0.606882  0.731655  0.033033  1
  B  B22  1  0.268345  0.875227  0.366366  1
  B  B23  1  0.124773  0.393118  0.699699  1
  B  B24  1  0.121585  0.490054  0.586406  1
  B  B25  1  0.368469  0.878415  0.253073  1
  B  B26  1  0.509946  0.631531  0.919739  1
  B  B27  1  0.878415  0.509946  0.586406  1
  B  B28  1  0.490054  0.368469  0.919739  1
  B  B29  1  0.631531  0.121585  0.253073  1
  B  B30  1  0.631530  0.509946  0.080273  1
  B  B31  1  0.490054  0.121584  0.413606  1
  B  B32  1  0.878416  0.368470  0.746939  1
  B  B33  1  0.368470  0.490054  0.080273  1
  B  B34  1  0.509946  0.878416  0.413606  1
  B  B35  1  0.121584  0.631530  0.746939  1
  H  H36  1  0.502239  0.751117  0.666676  1
  H  H37  1  0.248878  0.497761  0.333343  1
  H  H38  1  0.248883  0.751122  0.000009  1
  H  H39  1  0.497761  0.248883  0.666676  1
  H  H40  1  0.751117  0.248878  0.000009  1
  H  H41  1  0.751122  0.502239  0.333343  1
  H  H42  1  0.182078  0.911152  0.603682  1
  H  H43  1  0.729075  0.817922  0.270349  1
  H  H44  1  0.088848  0.270925  0.937015  1
  H  H45  1  0.817922  0.088848  0.603682  1
  H  H46  1  0.911152  0.729075  0.937015  1
  H  H47  1  0.270925  0.182078  0.270349  1
  H  H48  1  0.270913  0.088851  0.062995  1
  H  H49  1  0.911149  0.182062  0.396328  1
  H  H50  1  0.817938  0.729087  0.729661  1
  H  H51  1  0.729087  0.911149  0.062995  1
  H  H52  1  0.088851  0.817938  0.396328  1
  H  H53  1  0.182062  0.270913  0.729661  1
  H  H54  1  0.193666  0.461107  0.517843  1
  H  H55  1  0.267441  0.806334  0.184510  1
  H  H56  1  0.538893  0.732559  0.851176  1
  H  H57  1  0.806334  0.538893  0.517843  1
  H  H58  1  0.461107  0.267441  0.851176  1
  H  H59  1  0.732559  0.193666  0.184510  1
  H  H60  1  0.732557  0.538884  0.148836  1
  H  H61  1  0.461116  0.193673  0.482169  1
  H  H62  1  0.806327  0.267443  0.815502  1
  H  H63  1  0.267443  0.461116  0.148836  1
  H  H64  1  0.538884  0.806327  0.482169  1
  H  H65  1  0.193673  0.732557  0.815502  1
