# generated using pymatgen
data_Sr2FeSO3
_symmetry_space_group_name_H-M   'P 1'
_cell_length_a   4.00480841
_cell_length_b   4.00512016
_cell_length_c   14.50075116
_cell_angle_alpha   89.99982889
_cell_angle_beta   90.00005193
_cell_angle_gamma   90.00290673
_symmetry_Int_Tables_number   1
_chemical_formula_structural   Sr2FeSO3
_chemical_formula_sum   'Sr4 Fe2 S2 O6'
_cell_volume   232.58826231
_cell_formula_units_Z   2
loop_
 _symmetry_equiv_pos_site_id
 _symmetry_equiv_pos_as_xyz
  1  'x, y, z'
loop_
 _atom_site_type_symbol
 _atom_site_label
 _atom_site_symmetry_multiplicity
 _atom_site_fract_x
 _atom_site_fract_y
 _atom_site_fract_z
 _atom_site_occupancy
  Sr  Sr0  1  0.750000  0.750001  0.161690  1
  Sr  Sr1  1  0.250001  0.249999  0.838323  1
  Sr  Sr2  1  0.750002  0.750001  0.407263  1
  Sr  Sr3  1  0.250000  0.250000  0.592725  1
  Fe  Fe4  1  0.249997  0.250006  0.291976  1
  Fe  Fe5  1  0.750002  0.749997  0.707996  1
  S  S6  1  0.250001  0.250000  0.110540  1
  S  S7  1  0.750000  0.750000  0.889491  1
  O  O8  1  0.750001  0.250003  0.284081  1
  O  O9  1  0.250000  0.750002  0.284088  1
  O  O10  1  0.249999  0.749996  0.715920  1
  O  O11  1  0.749998  0.249999  0.715913  1
  O  O12  1  0.250000  0.250001  0.424557  1
  O  O13  1  0.750000  0.749999  0.575438  1
