# generated using pymatgen
data_Zn(WO2)2
_symmetry_space_group_name_H-M   'P 1'
_cell_length_a   3.29181185
_cell_length_b   7.70130344
_cell_length_c   7.97131300
_cell_angle_alpha   80.04981337
_cell_angle_beta   76.18784777
_cell_angle_gamma   75.71208502
_symmetry_Int_Tables_number   1
_chemical_formula_structural   Zn(WO2)2
_chemical_formula_sum   'Zn2 W4 O8'
_cell_volume   188.77167793
_cell_formula_units_Z   2
loop_
 _symmetry_equiv_pos_site_id
 _symmetry_equiv_pos_as_xyz
  1  'x, y, z'
loop_
 _atom_site_type_symbol
 _atom_site_label
 _atom_site_symmetry_multiplicity
 _atom_site_fract_x
 _atom_site_fract_y
 _atom_site_fract_z
 _atom_site_occupancy
  Zn  Zn0  1  0.136607  0.051951  0.124117  1
  Zn  Zn1  1  0.846007  0.933279  0.907904  1
  W  W2  1  0.634111  0.174866  0.547161  1
  W  W3  1  0.161546  0.490426  0.201914  1
  W  W4  1  0.846383  0.487125  0.831235  1
  W  W5  1  0.369508  0.802574  0.485720  1
  O  O6  1  0.868654  0.670368  0.622948  1
  O  O7  1  0.483607  0.347198  0.750323  1
  O  O8  1  0.522597  0.629460  0.282942  1
  O  O9  1  0.135059  0.306891  0.410184  1
  O  O10  1  0.153313  0.006547  0.668581  1
  O  O11  1  0.813918  0.347490  0.089618  1
  O  O12  1  0.849965  0.970715  0.364579  1
  O  O13  1  0.195037  0.627909  0.944217  1
