# generated using pymatgen
data_FeP
_symmetry_space_group_name_H-M   'P 1'
_cell_length_a   3.04914229
_cell_length_b   5.15267381
_cell_length_c   5.76554718
_cell_angle_alpha   90.00000000
_cell_angle_beta   90.00000000
_cell_angle_gamma   90.00000000
_symmetry_Int_Tables_number   1
_chemical_formula_structural   FeP
_chemical_formula_sum   'Fe4 P4'
_cell_volume   90.58387023
_cell_formula_units_Z   4
loop_
 _symmetry_equiv_pos_site_id
 _symmetry_equiv_pos_as_xyz
  1  'x, y, z'
loop_
 _atom_site_type_symbol
 _atom_site_label
 _atom_site_symmetry_multiplicity
 _atom_site_fract_x
 _atom_site_fract_y
 _atom_site_fract_z
 _atom_site_occupancy
  P  P0  1  0.250000  0.690886  0.932925  1
  P  P1  1  0.750000  0.309114  0.067075  1
  P  P2  1  0.250000  0.190886  0.567075  1
  P  P3  1  0.750000  0.809114  0.432925  1
  Fe  Fe4  1  0.250000  0.500888  0.298135  1
  Fe  Fe5  1  0.750000  0.499112  0.701865  1
  Fe  Fe6  1  0.250000  0.000888  0.201865  1
  Fe  Fe7  1  0.750000  0.999112  0.798135  1
