# generated using pymatgen
data_CeSe2
_symmetry_space_group_name_H-M   'P 1'
_cell_length_a   6.87170522
_cell_length_b   5.95298917
_cell_length_c   6.20730265
_cell_angle_alpha   58.57647678
_cell_angle_beta   89.99999369
_cell_angle_gamma   125.25132943
_symmetry_Int_Tables_number   1
_chemical_formula_structural   CeSe2
_chemical_formula_sum   'Ce2 Se4'
_cell_volume   159.60148718
_cell_formula_units_Z   2
loop_
 _symmetry_equiv_pos_site_id
 _symmetry_equiv_pos_as_xyz
  1  'x, y, z'
loop_
 _atom_site_type_symbol
 _atom_site_label
 _atom_site_symmetry_multiplicity
 _atom_site_fract_x
 _atom_site_fract_y
 _atom_site_fract_z
 _atom_site_occupancy
  Ce  Ce0  1  0.750000  0.500000  0.250000  1
  Ce  Ce1  1  0.250000  0.500000  0.750000  1
  Se  Se2  1  0.792763  1.000000  0.308837  1
  Se  Se3  1  0.207237  0.000000  0.691163  1
  Se  Se4  1  0.292763  1.000000  0.191163  1
  Se  Se5  1  0.707237  0.000000  0.808837  1
