# generated using pymatgen
data_ZnSiN2
_symmetry_space_group_name_H-M   'P 1'
_cell_length_a   6.43711499
_cell_length_b   11.62754513
_cell_length_c   5.63798775
_cell_angle_alpha   90.00000000
_cell_angle_beta   90.00000000
_cell_angle_gamma   25.42284372
_symmetry_Int_Tables_number   1
_chemical_formula_structural   ZnSiN2
_chemical_formula_sum   'Zn4 Si4 N8'
_cell_volume   181.15883517
_cell_formula_units_Z   4
loop_
 _symmetry_equiv_pos_site_id
 _symmetry_equiv_pos_as_xyz
  1  'x, y, z'
loop_
 _atom_site_type_symbol
 _atom_site_label
 _atom_site_symmetry_multiplicity
 _atom_site_fract_x
 _atom_site_fract_y
 _atom_site_fract_z
 _atom_site_occupancy
  Zn  Zn0  1  0.000000  0.171499  0.571013  1
  Zn  Zn1  1  1.000000  0.828501  0.428987  1
  Zn  Zn2  1  1.000000  0.328501  0.071013  1
  Zn  Zn3  1  0.000000  0.671499  0.928987  1
  Si  Si4  1  0.000000  0.420316  0.634273  1
  Si  Si5  1  0.000000  0.579684  0.365727  1
  Si  Si6  1  0.000000  0.079684  0.134273  1
  Si  Si7  1  0.000000  0.920316  0.865727  1
  N  N8  1  1.000000  0.068206  0.830118  1
  N  N9  1  0.000000  0.931794  0.169882  1
  N  N10  1  0.000000  0.431794  0.330118  1
  N  N11  1  1.000000  0.568206  0.669882  1
  N  N12  1  0.500000  0.592227  0.750000  1
  N  N13  1  0.500000  0.907773  0.250000  1
  N  N14  1  0.500000  0.407773  0.250000  1
  N  N15  1  0.500000  0.092227  0.750000  1
