# generated using pymatgen
data_CeSi2
_symmetry_space_group_name_H-M   'P 1'
_cell_length_a   4.10179885
_cell_length_b   4.10179885
_cell_length_c   7.64542916
_cell_angle_alpha   105.56025971
_cell_angle_beta   105.56025973
_cell_angle_gamma   90.00000000
_symmetry_Int_Tables_number   1
_chemical_formula_structural   CeSi2
_chemical_formula_sum   'Ce2 Si4'
_cell_volume   119.01680320
_cell_formula_units_Z   2
loop_
 _symmetry_equiv_pos_site_id
 _symmetry_equiv_pos_as_xyz
  1  'x, y, z'
loop_
 _atom_site_type_symbol
 _atom_site_label
 _atom_site_symmetry_multiplicity
 _atom_site_fract_x
 _atom_site_fract_y
 _atom_site_fract_z
 _atom_site_occupancy
  Si  Si0  1  0.708468  0.958468  0.916935  1
  Si  Si1  1  0.458468  0.208468  0.416935  1
  Si  Si2  1  0.541532  0.791532  0.583065  1
  Si  Si3  1  0.291532  0.041532  0.083065  1
  Ce  Ce4  1  0.875000  0.625000  0.250000  1
  Ce  Ce5  1  0.125000  0.375000  0.750000  1
