# generated using pymatgen
data_Ca
_symmetry_space_group_name_H-M   'P 1'
_cell_length_a   6.52711192
_cell_length_b   6.20059357
_cell_length_c   6.20059357
_cell_angle_alpha   73.91740071
_cell_angle_beta   58.24220525
_cell_angle_gamma   58.24220525
_symmetry_Int_Tables_number   1
_chemical_formula_structural   Ca
_chemical_formula_sum   Ca4
_cell_volume   181.43127861
_cell_formula_units_Z   4
loop_
 _symmetry_equiv_pos_site_id
 _symmetry_equiv_pos_as_xyz
  1  'x, y, z'
loop_
 _atom_site_type_symbol
 _atom_site_label
 _atom_site_symmetry_multiplicity
 _atom_site_fract_x
 _atom_site_fract_y
 _atom_site_fract_z
 _atom_site_occupancy
  Ca  Ca0  1  0.169766  0.160469  0.500000  1
  Ca  Ca1  1  0.830234  0.839531  0.500000  1
  Ca  Ca2  1  0.330234  0.500000  0.839531  1
  Ca  Ca3  1  0.669766  0.500000  0.160469  1
