# generated using pymatgen
data_Th2Au
_symmetry_space_group_name_H-M   'P 1'
_cell_length_a   6.01435055
_cell_length_b   6.09332154
_cell_length_c   6.09332153
_cell_angle_alpha   75.90313962
_cell_angle_beta   60.42780357
_cell_angle_gamma   60.42780358
_symmetry_Int_Tables_number   1
_chemical_formula_structural   Th2Au
_chemical_formula_sum   'Th4 Au2'
_cell_volume   168.91582700
_cell_formula_units_Z   2
loop_
 _symmetry_equiv_pos_site_id
 _symmetry_equiv_pos_as_xyz
  1  'x, y, z'
loop_
 _atom_site_type_symbol
 _atom_site_label
 _atom_site_symmetry_multiplicity
 _atom_site_fract_x
 _atom_site_fract_y
 _atom_site_fract_z
 _atom_site_occupancy
  Au  Au0  1  0.750000  0.000000  0.000000  1
  Au  Au1  1  0.250000  0.000000  0.000000  1
  Th  Th2  1  0.657222  0.185556  0.500000  1
  Th  Th3  1  0.842778  0.500000  0.814444  1
  Th  Th4  1  0.342778  0.814444  0.500000  1
  Th  Th5  1  0.157222  0.500000  0.185556  1
