# generated using pymatgen
data_TbCo2B2C
_symmetry_space_group_name_H-M   'P 1'
_cell_length_a   3.55500715
_cell_length_b   3.55433868
_cell_length_c   5.73044505
_cell_angle_alpha   108.06692222
_cell_angle_beta   108.07043736
_cell_angle_gamma   90.00000000
_symmetry_Int_Tables_number   1
_chemical_formula_structural   TbCo2B2C
_chemical_formula_sum   'Tb1 Co2 B2 C1'
_cell_volume   65.07096981
_cell_formula_units_Z   1
loop_
 _symmetry_equiv_pos_site_id
 _symmetry_equiv_pos_as_xyz
  1  'x, y, z'
loop_
 _atom_site_type_symbol
 _atom_site_label
 _atom_site_symmetry_multiplicity
 _atom_site_fract_x
 _atom_site_fract_y
 _atom_site_fract_z
 _atom_site_occupancy
  Tb  Tb0  1  0.500000  0.500000  0.000000  1
  Co  Co1  1  0.750018  0.250018  0.500036  1
  Co  Co2  1  0.249982  0.749982  0.499964  1
  B  B3  1  0.146213  0.146213  0.292427  1
  B  B4  1  0.853787  0.853787  0.707573  1
  C  C5  1  0.000000  -0.000000  0.000000  1
