# generated using pymatgen
data_NdMgGa
_symmetry_space_group_name_H-M   'P 1'
_cell_length_a   7.48325831
_cell_length_b   7.48325831
_cell_length_c   4.54102619
_cell_angle_alpha   90.00000000
_cell_angle_beta   90.00000000
_cell_angle_gamma   119.99999997
_symmetry_Int_Tables_number   1
_chemical_formula_structural   NdMgGa
_chemical_formula_sum   'Nd3 Mg3 Ga3'
_cell_volume   220.22474290
_cell_formula_units_Z   3
loop_
 _symmetry_equiv_pos_site_id
 _symmetry_equiv_pos_as_xyz
  1  'x, y, z'
loop_
 _atom_site_type_symbol
 _atom_site_label
 _atom_site_symmetry_multiplicity
 _atom_site_fract_x
 _atom_site_fract_y
 _atom_site_fract_z
 _atom_site_occupancy
  Mg  Mg0  1  0.000000  0.757231  0.500000  1
  Mg  Mg1  1  0.242769  0.242769  0.500000  1
  Mg  Mg2  1  0.757231  0.000000  0.500000  1
  Ga  Ga3  1  0.666667  0.333333  0.500000  1
  Ga  Ga4  1  0.333333  0.666667  0.500000  1
  Ga  Ga5  1  0.000000  0.000000  0.000000  1
  Nd  Nd6  1  0.000000  0.422770  0.000000  1
  Nd  Nd7  1  0.577230  0.577230  0.000000  1
  Nd  Nd8  1  0.422770  0.000000  0.000000  1
