# generated using pymatgen
data_Co9S8
_symmetry_space_group_name_H-M   'P 1'
_cell_length_a   6.93145100
_cell_length_b   6.93145100
_cell_length_c   6.93145100
_cell_angle_alpha   59.99999999
_cell_angle_beta   60.00000000
_cell_angle_gamma   59.99999999
_symmetry_Int_Tables_number   1
_chemical_formula_structural   Co9S8
_chemical_formula_sum   'Co9 S8'
_cell_volume   235.48186909
_cell_formula_units_Z   1
loop_
 _symmetry_equiv_pos_site_id
 _symmetry_equiv_pos_as_xyz
  1  'x, y, z'
loop_
 _atom_site_type_symbol
 _atom_site_label
 _atom_site_symmetry_multiplicity
 _atom_site_fract_x
 _atom_site_fract_y
 _atom_site_fract_z
 _atom_site_occupancy
  S  S0  1  0.261361  0.738639  0.738639  1
  S  S1  1  0.261361  0.738639  0.261361  1
  S  S2  1  0.738639  0.261361  0.738639  1
  S  S3  1  0.261361  0.261361  0.738639  1
  S  S4  1  0.738639  0.738639  0.261361  1
  S  S5  1  0.738639  0.261361  0.261361  1
  S  S6  1  0.750000  0.750000  0.750000  1
  S  S7  1  0.250000  0.250000  0.250000  1
  Co  Co8  1  0.873473  0.873473  0.873473  1
  Co  Co9  1  0.126527  0.126527  0.620420  1
  Co  Co10  1  0.126527  0.620420  0.126527  1
  Co  Co11  1  0.620420  0.126527  0.126527  1
  Co  Co12  1  0.873473  0.379580  0.873473  1
  Co  Co13  1  0.379580  0.873473  0.873473  1
  Co  Co14  1  0.873473  0.873473  0.379580  1
  Co  Co15  1  0.126527  0.126527  0.126527  1
  Co  Co16  1  0.500000  0.500000  0.500000  1
