# generated using pymatgen
data_BaPr2NiO5
_symmetry_space_group_name_H-M   'P 1'
_cell_length_a   3.87899935
_cell_length_b   6.02595396
_cell_length_c   6.94121677
_cell_angle_alpha   115.72306865
_cell_angle_beta   106.22043239
_cell_angle_gamma   90.00774900
_symmetry_Int_Tables_number   1
_chemical_formula_structural   BaPr2NiO5
_chemical_formula_sum   'Ba1 Pr2 Ni1 O5'
_cell_volume   138.96339752
_cell_formula_units_Z   1
loop_
 _symmetry_equiv_pos_site_id
 _symmetry_equiv_pos_as_xyz
  1  'x, y, z'
loop_
 _atom_site_type_symbol
 _atom_site_label
 _atom_site_symmetry_multiplicity
 _atom_site_fract_x
 _atom_site_fract_y
 _atom_site_fract_z
 _atom_site_occupancy
  O  O0  1  0.999999  0.500000  1.000000  1
  O  O1  1  0.356020  0.597788  0.711989  1
  O  O2  1  0.643980  0.402212  0.288011  1
  O  O3  1  0.644001  0.885803  0.288019  1
  O  O4  1  0.355999  0.114197  0.711981  1
  Ni  Ni5  1  0.500000  0.500000  0.000000  1
  Ba  Ba6  1  1.000000  1.000000  1.000000  1
  Pr  Pr7  1  0.202652  0.702616  0.405216  1
  Pr  Pr8  1  0.797348  0.297384  0.594784  1
