# generated using pymatgen
data_TiZnO3
_symmetry_space_group_name_H-M   'P 1'
_cell_length_a   5.55679882
_cell_length_b   5.55679849
_cell_length_c   5.55679857
_cell_angle_alpha   54.93475109
_cell_angle_beta   54.93475353
_cell_angle_gamma   54.93474869
_symmetry_Int_Tables_number   1
_chemical_formula_structural   TiZnO3
_chemical_formula_sum   'Ti2 Zn2 O6'
_cell_volume   107.02480497
_cell_formula_units_Z   2
loop_
 _symmetry_equiv_pos_site_id
 _symmetry_equiv_pos_as_xyz
  1  'x, y, z'
loop_
 _atom_site_type_symbol
 _atom_site_label
 _atom_site_symmetry_multiplicity
 _atom_site_fract_x
 _atom_site_fract_y
 _atom_site_fract_z
 _atom_site_occupancy
  Ti  Ti0  1  0.145693  0.145693  0.145693  1
  Ti  Ti1  1  0.854307  0.854307  0.854307  1
  Zn  Zn2  1  0.639781  0.639781  0.639781  1
  Zn  Zn3  1  0.360219  0.360219  0.360219  1
  O  O4  1  0.775662  0.437115  0.051193  1
  O  O5  1  0.051193  0.775662  0.437115  1
  O  O6  1  0.437115  0.051193  0.775662  1
  O  O7  1  0.224338  0.562885  0.948807  1
  O  O8  1  0.562885  0.948807  0.224338  1
  O  O9  1  0.948807  0.224338  0.562885  1
