# generated using pymatgen
data_BaTb2NiO5
_symmetry_space_group_name_H-M   'P 1'
_cell_length_a   3.80384349
_cell_length_b   5.82906028
_cell_length_c   6.71282382
_cell_angle_alpha   115.73271345
_cell_angle_beta   106.45884913
_cell_angle_gamma   89.99999996
_symmetry_Int_Tables_number   1
_chemical_formula_structural   BaTb2NiO5
_chemical_formula_sum   'Ba1 Tb2 Ni1 O5'
_cell_volume   127.27710484
_cell_formula_units_Z   1
loop_
 _symmetry_equiv_pos_site_id
 _symmetry_equiv_pos_as_xyz
  1  'x, y, z'
loop_
 _atom_site_type_symbol
 _atom_site_label
 _atom_site_symmetry_multiplicity
 _atom_site_fract_x
 _atom_site_fract_y
 _atom_site_fract_z
 _atom_site_occupancy
  O  O0  1  0.000000  0.500001  1.000000  1
  O  O1  1  0.350705  0.590984  0.701411  1
  O  O2  1  0.649294  0.409016  0.298589  1
  O  O3  1  0.649296  0.889573  0.298589  1
  O  O4  1  0.350706  0.110427  0.701412  1
  Ni  Ni5  1  0.500001  0.500001  0.000001  1
  Ba  Ba6  1  0.000000  0.000000  0.000000  1
  Tb  Tb7  1  0.203152  0.703152  0.406304  1
  Tb  Tb8  1  0.796847  0.296848  0.593696  1
