# generated using pymatgen
data_Ho2Fe2Si2C
_symmetry_space_group_name_H-M   'P 1'
_cell_length_a   3.92149067
_cell_length_b   5.61830686
_cell_length_c   5.62848222
_cell_angle_alpha   73.19346952
_cell_angle_beta   69.61288296
_cell_angle_gamma   69.57431340
_symmetry_Int_Tables_number   1
_chemical_formula_structural   Ho2Fe2Si2C
_chemical_formula_sum   'Ho2 Fe2 Si2 C1'
_cell_volume   106.93093969
_cell_formula_units_Z   1
loop_
 _symmetry_equiv_pos_site_id
 _symmetry_equiv_pos_as_xyz
  1  'x, y, z'
loop_
 _atom_site_type_symbol
 _atom_site_label
 _atom_site_symmetry_multiplicity
 _atom_site_fract_x
 _atom_site_fract_y
 _atom_site_fract_z
 _atom_site_occupancy
  Ho  Ho0  1  0.440926  0.825015  0.293134  1
  Ho  Ho1  1  0.559074  0.174985  0.706866  1
  Fe  Fe2  1  0.798044  0.307089  0.096823  1
  Fe  Fe3  1  0.201956  0.692911  0.903177  1
  Si  Si4  1  0.839167  0.606905  0.714761  1
  Si  Si5  1  0.160833  0.393095  0.285239  1
  C  C6  1  0.000000  0.000000  0.000000  1
