# generated using pymatgen
data_BaCoO3
_symmetry_space_group_name_H-M   'P 1'
_cell_length_a   5.73375636
_cell_length_b   5.73375635
_cell_length_c   4.76149965
_cell_angle_alpha   90.00000000
_cell_angle_beta   90.00000000
_cell_angle_gamma   120.00000003
_symmetry_Int_Tables_number   1
_chemical_formula_structural   BaCoO3
_chemical_formula_sum   'Ba2 Co2 O6'
_cell_volume   135.56664790
_cell_formula_units_Z   2
loop_
 _symmetry_equiv_pos_site_id
 _symmetry_equiv_pos_as_xyz
  1  'x, y, z'
loop_
 _atom_site_type_symbol
 _atom_site_label
 _atom_site_symmetry_multiplicity
 _atom_site_fract_x
 _atom_site_fract_y
 _atom_site_fract_z
 _atom_site_occupancy
  O  O0  1  0.851995  0.148005  0.750000  1
  O  O1  1  0.703990  0.851995  0.250000  1
  O  O2  1  0.148005  0.296010  0.250000  1
  O  O3  1  0.851995  0.703990  0.750000  1
  O  O4  1  0.148005  0.851995  0.250000  1
  O  O5  1  0.296010  0.148005  0.750000  1
  Co  Co6  1  0.000000  0.000000  0.500000  1
  Co  Co7  1  0.000000  0.000000  0.000000  1
  Ba  Ba8  1  0.666667  0.333333  0.250000  1
  Ba  Ba9  1  0.333333  0.666667  0.750000  1
