# generated using pymatgen
data_SrSi2
_symmetry_space_group_name_H-M   'P 1'
_cell_length_a   4.45776150
_cell_length_b   4.45776150
_cell_length_c   7.61851954
_cell_angle_alpha   107.01133427
_cell_angle_beta   107.01133426
_cell_angle_gamma   90.00000005
_symmetry_Int_Tables_number   1
_chemical_formula_structural   SrSi2
_chemical_formula_sum   'Sr2 Si4'
_cell_volume   137.82670591
_cell_formula_units_Z   2
loop_
 _symmetry_equiv_pos_site_id
 _symmetry_equiv_pos_as_xyz
  1  'x, y, z'
loop_
 _atom_site_type_symbol
 _atom_site_label
 _atom_site_symmetry_multiplicity
 _atom_site_fract_x
 _atom_site_fract_y
 _atom_site_fract_z
 _atom_site_occupancy
  Si  Si0  1  0.209047  0.459047  0.918093  1
  Si  Si1  1  0.959047  0.709047  0.418093  1
  Si  Si2  1  0.040953  0.290953  0.581907  1
  Si  Si3  1  0.790953  0.540953  0.081907  1
  Sr  Sr4  1  0.625000  0.875000  0.750000  1
  Sr  Sr5  1  0.375000  0.125000  0.250000  1
