# generated using pymatgen
data_Tl2Pt2O7
_symmetry_space_group_name_H-M   'P 1'
_cell_length_a   7.30844626
_cell_length_b   7.30844626
_cell_length_c   7.30844625
_cell_angle_alpha   59.99999999
_cell_angle_beta   59.99999999
_cell_angle_gamma   59.99999997
_symmetry_Int_Tables_number   1
_chemical_formula_structural   Tl2Pt2O7
_chemical_formula_sum   'Tl4 Pt4 O14'
_cell_volume   276.03247201
_cell_formula_units_Z   2
loop_
 _symmetry_equiv_pos_site_id
 _symmetry_equiv_pos_as_xyz
  1  'x, y, z'
loop_
 _atom_site_type_symbol
 _atom_site_label
 _atom_site_symmetry_multiplicity
 _atom_site_fract_x
 _atom_site_fract_y
 _atom_site_fract_z
 _atom_site_occupancy
  O  O0  1  0.165560  0.584440  0.584440  1
  O  O1  1  0.415560  0.834440  0.834440  1
  O  O2  1  0.584440  0.165560  0.584440  1
  O  O3  1  0.584440  0.584440  0.165560  1
  O  O4  1  0.165560  0.165560  0.584440  1
  O  O5  1  0.165560  0.584440  0.165560  1
  O  O6  1  0.415560  0.834440  0.415560  1
  O  O7  1  0.834440  0.415560  0.834440  1
  O  O8  1  0.875000  0.875000  0.875000  1
  O  O9  1  0.125000  0.125000  0.125000  1
  O  O10  1  0.584440  0.165560  0.165560  1
  O  O11  1  0.834440  0.834440  0.415560  1
  O  O12  1  0.415560  0.415560  0.834440  1
  O  O13  1  0.834440  0.415560  0.415560  1
  Pt  Pt14  1  0.500000  0.000000  0.500000  1
  Pt  Pt15  1  0.000000  0.500000  0.500000  1
  Pt  Pt16  1  0.500000  0.500000  0.000000  1
  Pt  Pt17  1  0.500000  0.500000  0.500000  1
  Tl  Tl18  1  0.000000  0.500000  0.000000  1
  Tl  Tl19  1  0.500000  0.000000  0.000000  1
  Tl  Tl20  1  0.000000  0.000000  0.500000  1
  Tl  Tl21  1  0.000000  0.000000  0.000000  1
