# generated using pymatgen
data_CaSiN2
_symmetry_space_group_name_H-M   'P 1'
_cell_length_a   5.44323778
_cell_length_b   11.04662954
_cell_length_c   6.84250824
_cell_angle_alpha   90.00000000
_cell_angle_beta   90.00000000
_cell_angle_gamma   90.00000000
_symmetry_Int_Tables_number   1
_chemical_formula_structural   CaSiN2
_chemical_formula_sum   'Ca8 Si8 N16'
_cell_volume   411.43612882
_cell_formula_units_Z   8
loop_
 _symmetry_equiv_pos_site_id
 _symmetry_equiv_pos_as_xyz
  1  'x, y, z'
loop_
 _atom_site_type_symbol
 _atom_site_label
 _atom_site_symmetry_multiplicity
 _atom_site_fract_x
 _atom_site_fract_y
 _atom_site_fract_z
 _atom_site_occupancy
  Ca  Ca0  1  0.000000  0.824053  0.927605  1
  Ca  Ca1  1  0.500000  0.675947  0.072395  1
  Ca  Ca2  1  0.000000  0.675947  0.427605  1
  Ca  Ca3  1  0.500000  0.824053  0.572395  1
  Ca  Ca4  1  0.500000  0.324053  0.927605  1
  Ca  Ca5  1  0.000000  0.175947  0.072395  1
  Ca  Ca6  1  0.500000  0.175947  0.427605  1
  Ca  Ca7  1  0.000000  0.324053  0.572395  1
  Si  Si8  1  0.000000  0.561711  0.857490  1
  Si  Si9  1  0.500000  0.938289  0.142510  1
  Si  Si10  1  0.000000  0.938289  0.357490  1
  Si  Si11  1  0.500000  0.561711  0.642510  1
  Si  Si12  1  0.500000  0.061711  0.857490  1
  Si  Si13  1  0.000000  0.438289  0.142510  1
  Si  Si14  1  0.500000  0.438289  0.357490  1
  Si  Si15  1  0.000000  0.061711  0.642510  1
  N  N16  1  0.000000  0.902596  0.610125  1
  N  N17  1  0.500000  0.597404  0.389875  1
  N  N18  1  0.000000  0.597404  0.110125  1
  N  N19  1  0.500000  0.902596  0.889875  1
  N  N20  1  0.750000  0.630845  0.750000  1
  N  N21  1  0.250000  0.869155  0.250000  1
  N  N22  1  0.750000  0.869155  0.250000  1
  N  N23  1  0.250000  0.630845  0.750000  1
  N  N24  1  0.500000  0.402596  0.610125  1
  N  N25  1  0.000000  0.097404  0.389875  1
  N  N26  1  0.500000  0.097404  0.110125  1
  N  N27  1  0.000000  0.402596  0.889875  1
  N  N28  1  0.250000  0.130845  0.750000  1
  N  N29  1  0.750000  0.369155  0.250000  1
  N  N30  1  0.250000  0.369155  0.250000  1
  N  N31  1  0.750000  0.130845  0.750000  1
