# generated using pymatgen
data_TmAu
_symmetry_space_group_name_H-M   'P 1'
_cell_length_a   3.68576288
_cell_length_b   4.63507915
_cell_length_c   5.72590220
_cell_angle_alpha   90.00000000
_cell_angle_beta   71.22515995
_cell_angle_gamma   90.00000000
_symmetry_Int_Tables_number   1
_chemical_formula_structural   TmAu
_chemical_formula_sum   'Tm2 Au2'
_cell_volume   92.61523828
_cell_formula_units_Z   2
loop_
 _symmetry_equiv_pos_site_id
 _symmetry_equiv_pos_as_xyz
  1  'x, y, z'
loop_
 _atom_site_type_symbol
 _atom_site_label
 _atom_site_symmetry_multiplicity
 _atom_site_fract_x
 _atom_site_fract_y
 _atom_site_fract_z
 _atom_site_occupancy
  Tm  Tm0  1  0.139128  0.750000  0.721743  1
  Tm  Tm1  1  0.860872  0.250000  0.278257  1
  Au  Au2  1  0.410909  0.750000  0.178182  1
  Au  Au3  1  0.589091  0.250000  0.821818  1
