# generated using pymatgen
data_V2Zn2O7
_symmetry_space_group_name_H-M   'P 1'
_cell_length_a   5.09547411
_cell_length_b   5.51410608
_cell_length_c   5.51410608
_cell_angle_alpha   101.14455017
_cell_angle_beta   101.47366219
_cell_angle_gamma   101.47366214
_symmetry_Int_Tables_number   1
_chemical_formula_structural   V2Zn2O7
_chemical_formula_sum   'V2 Zn2 O7'
_cell_volume   144.36001508
_cell_formula_units_Z   1
loop_
 _symmetry_equiv_pos_site_id
 _symmetry_equiv_pos_as_xyz
  1  'x, y, z'
loop_
 _atom_site_type_symbol
 _atom_site_label
 _atom_site_symmetry_multiplicity
 _atom_site_fract_x
 _atom_site_fract_y
 _atom_site_fract_z
 _atom_site_occupancy
  O  O0  1  0.224971  0.419066  0.419066  1
  O  O1  1  0.775027  0.580934  0.580933  1
  O  O2  1  0.290465  0.952555  0.619151  1
  O  O3  1  0.709535  0.380849  0.047446  1
  O  O4  1  0.000000  0.000000  0.000000  1
  O  O5  1  0.709535  0.047447  0.380849  1
  O  O6  1  0.290465  0.619150  0.952554  1
  V  V7  1  0.903352  0.223343  0.223344  1
  V  V8  1  0.096648  0.776656  0.776656  1
  Zn  Zn9  1  0.500000  0.316080  0.683919  1
  Zn  Zn10  1  0.500000  0.683921  0.316080  1
