# generated using pymatgen
data_CoCu2SnS4
_symmetry_space_group_name_H-M   'P 1'
_cell_length_a   5.42159589
_cell_length_b   5.42159589
_cell_length_c   6.58233263
_cell_angle_alpha   114.31980534
_cell_angle_beta   114.31980536
_cell_angle_gamma   90.00000002
_symmetry_Int_Tables_number   1
_chemical_formula_structural   CoCu2SnS4
_chemical_formula_sum   'Co1 Cu2 Sn1 S4'
_cell_volume   157.27759892
_cell_formula_units_Z   1
loop_
 _symmetry_equiv_pos_site_id
 _symmetry_equiv_pos_as_xyz
  1  'x, y, z'
loop_
 _atom_site_type_symbol
 _atom_site_label
 _atom_site_symmetry_multiplicity
 _atom_site_fract_x
 _atom_site_fract_y
 _atom_site_fract_z
 _atom_site_occupancy
  S  S0  1  0.900451  0.900451  0.262629  1
  S  S1  1  0.637822  0.099549  0.737371  1
  S  S2  1  0.099549  0.637822  0.737371  1
  S  S3  1  0.362178  0.362178  0.262629  1
  Co  Co4  1  0.000000  0.000000  0.000000  1
  Cu  Cu5  1  0.250000  0.750000  0.500000  1
  Cu  Cu6  1  0.750000  0.250000  0.500000  1
  Sn  Sn7  1  0.500000  0.500000  0.000000  1
