# generated using pymatgen
data_LaCoO3
_symmetry_space_group_name_H-M   'P 1'
_cell_length_a   5.37533137
_cell_length_b   5.37265743
_cell_length_c   5.37513349
_cell_angle_alpha   61.38928743
_cell_angle_beta   61.32399362
_cell_angle_gamma   61.38045273
_symmetry_Int_Tables_number   1
_chemical_formula_structural   LaCoO3
_chemical_formula_sum   'La2 Co2 O6'
_cell_volume   113.13157804
_cell_formula_units_Z   2
loop_
 _symmetry_equiv_pos_site_id
 _symmetry_equiv_pos_as_xyz
  1  'x, y, z'
loop_
 _atom_site_type_symbol
 _atom_site_label
 _atom_site_symmetry_multiplicity
 _atom_site_fract_x
 _atom_site_fract_y
 _atom_site_fract_z
 _atom_site_occupancy
  La  La0  1  0.749909  0.749871  0.749798  1
  La  La1  1  0.250085  0.250137  0.250206  1
  Co  Co2  1  0.999999  0.000001  0.000001  1
  Co  Co3  1  0.499999  0.500002  0.500000  1
  O  O4  1  0.687231  0.250345  0.812750  1
  O  O5  1  0.250427  0.813038  0.686973  1
  O  O6  1  0.187026  0.313053  0.749741  1
  O  O7  1  0.812968  0.686954  0.250254  1
  O  O8  1  0.749590  0.186964  0.313024  1
  O  O9  1  0.312766  0.749635  0.187254  1
