# generated using pymatgen
data_Mn(SbO2)2
_symmetry_space_group_name_H-M   'P 1'
_cell_length_a   6.17562682
_cell_length_b   8.85823307
_cell_length_c   8.85823307
_cell_angle_alpha   90.00000000
_cell_angle_beta   90.00000000
_cell_angle_gamma   90.00000000
_symmetry_Int_Tables_number   1
_chemical_formula_structural   Mn(SbO2)2
_chemical_formula_sum   'Mn4 Sb8 O16'
_cell_volume   484.59089553
_cell_formula_units_Z   4
loop_
 _symmetry_equiv_pos_site_id
 _symmetry_equiv_pos_as_xyz
  1  'x, y, z'
loop_
 _atom_site_type_symbol
 _atom_site_label
 _atom_site_symmetry_multiplicity
 _atom_site_fract_x
 _atom_site_fract_y
 _atom_site_fract_z
 _atom_site_occupancy
  O  O0  1  0.500000  0.858578  0.400331  1
  O  O1  1  0.500000  0.141422  0.599669  1
  O  O2  1  0.000000  0.400331  0.141422  1
  O  O3  1  0.000000  0.599669  0.858578  1
  O  O4  1  0.000000  0.900331  0.358578  1
  O  O5  1  0.500000  0.641422  0.900331  1
  O  O6  1  0.500000  0.358578  0.099669  1
  O  O7  1  0.000000  0.099669  0.641422  1
  O  O8  1  0.750000  0.680351  0.180351  1
  O  O9  1  0.249999  0.819649  0.680351  1
  O  O10  1  0.249999  0.180351  0.319649  1
  O  O11  1  0.750000  0.319649  0.819649  1
  O  O12  1  0.249999  0.680351  0.180351  1
  O  O13  1  0.750000  0.819649  0.680351  1
  O  O14  1  0.249999  0.319649  0.819649  1
  O  O15  1  0.750000  0.180351  0.319649  1
  Mn  Mn16  1  0.249999  0.000000  0.500000  1
  Mn  Mn17  1  0.750000  0.500000  0.000000  1
  Mn  Mn18  1  0.750000  0.000000  0.500000  1
  Mn  Mn19  1  0.249999  0.500000  0.000000  1
  Sb  Sb20  1  0.500000  0.830742  0.180761  1
  Sb  Sb21  1  0.500000  0.169258  0.819239  1
  Sb  Sb22  1  0.000000  0.819239  0.830742  1
  Sb  Sb23  1  0.000000  0.180761  0.169258  1
  Sb  Sb24  1  0.000000  0.680761  0.330742  1
  Sb  Sb25  1  0.000000  0.319239  0.669258  1
  Sb  Sb26  1  0.500000  0.669258  0.680761  1
  Sb  Sb27  1  0.500000  0.330742  0.319239  1
