# generated using pymatgen
data_PbS
_symmetry_space_group_name_H-M   'P 1'
_cell_length_a   4.18690010
_cell_length_b   4.31266438
_cell_length_c   6.37347200
_cell_angle_alpha   90.00000000
_cell_angle_beta   70.82448461
_cell_angle_gamma   90.00000000
_symmetry_Int_Tables_number   1
_chemical_formula_structural   PbS
_chemical_formula_sum   'Pb2 S2'
_cell_volume   108.69862220
_cell_formula_units_Z   2
loop_
 _symmetry_equiv_pos_site_id
 _symmetry_equiv_pos_as_xyz
  1  'x, y, z'
loop_
 _atom_site_type_symbol
 _atom_site_label
 _atom_site_symmetry_multiplicity
 _atom_site_fract_x
 _atom_site_fract_y
 _atom_site_fract_z
 _atom_site_occupancy
  Pb  Pb0  1  0.131966  0.750000  0.736068  1
  Pb  Pb1  1  0.868034  0.250000  0.263932  1
  S  S2  1  0.357256  0.750000  0.285489  1
  S  S3  1  0.642744  0.250000  0.714511  1
