# generated using pymatgen
data_MoSe2
_symmetry_space_group_name_H-M   'P 1'
_cell_length_a   3.32694913
_cell_length_b   3.32694914
_cell_length_c   15.45142322
_cell_angle_alpha   90.00000000
_cell_angle_beta   90.00000000
_cell_angle_gamma   120.00000002
_symmetry_Int_Tables_number   1
_chemical_formula_structural   MoSe2
_chemical_formula_sum   'Mo2 Se4'
_cell_volume   148.11240765
_cell_formula_units_Z   2
loop_
 _symmetry_equiv_pos_site_id
 _symmetry_equiv_pos_as_xyz
  1  'x, y, z'
loop_
 _atom_site_type_symbol
 _atom_site_label
 _atom_site_symmetry_multiplicity
 _atom_site_fract_x
 _atom_site_fract_y
 _atom_site_fract_z
 _atom_site_occupancy
  Se  Se0  1  0.333333  0.666667  0.858250  1
  Se  Se1  1  0.666667  0.333333  0.358250  1
  Se  Se2  1  0.333333  0.666667  0.641750  1
  Se  Se3  1  0.666667  0.333333  0.141750  1
  Mo  Mo4  1  0.666667  0.333333  0.750000  1
  Mo  Mo5  1  0.333333  0.666667  0.250000  1
