# generated using pymatgen
data_NiCO3
_symmetry_space_group_name_H-M   'P 1'
_cell_length_a   5.64101041
_cell_length_b   5.64101041
_cell_length_c   5.64101040
_cell_angle_alpha   48.74798374
_cell_angle_beta   48.74798374
_cell_angle_gamma   48.74798375
_symmetry_Int_Tables_number   1
_chemical_formula_structural   NiCO3
_chemical_formula_sum   'Ni2 C2 O6'
_cell_volume   93.10588943
_cell_formula_units_Z   2
loop_
 _symmetry_equiv_pos_site_id
 _symmetry_equiv_pos_as_xyz
  1  'x, y, z'
loop_
 _atom_site_type_symbol
 _atom_site_label
 _atom_site_symmetry_multiplicity
 _atom_site_fract_x
 _atom_site_fract_y
 _atom_site_fract_z
 _atom_site_occupancy
  C  C0  1  0.750000  0.750000  0.750000  1
  C  C1  1  0.250001  0.249999  0.250001  1
  O  O2  1  0.749999  0.471598  0.028402  1
  O  O3  1  0.471597  0.028401  0.750000  1
  O  O4  1  0.971598  0.250000  0.528402  1
  O  O5  1  0.028403  0.750001  0.471596  1
  O  O6  1  0.249999  0.528403  0.971598  1
  O  O7  1  0.528402  0.971597  0.250001  1
  Ni  Ni8  1  0.499999  0.500001  0.500000  1
  Ni  Ni9  1  0.000000  0.000000  0.000000  1
