# generated using pymatgen
data_KCoN
_symmetry_space_group_name_H-M   'P 1'
_cell_length_a   3.48442240
_cell_length_b   6.33336898
_cell_length_c   10.35753334
_cell_angle_alpha   90.00000000
_cell_angle_beta   90.00000000
_cell_angle_gamma   90.00000000
_symmetry_Int_Tables_number   1
_chemical_formula_structural   KCoN
_chemical_formula_sum   'K4 Co4 N4'
_cell_volume   228.57142062
_cell_formula_units_Z   4
loop_
 _symmetry_equiv_pos_site_id
 _symmetry_equiv_pos_as_xyz
  1  'x, y, z'
loop_
 _atom_site_type_symbol
 _atom_site_label
 _atom_site_symmetry_multiplicity
 _atom_site_fract_x
 _atom_site_fract_y
 _atom_site_fract_z
 _atom_site_occupancy
  K  K0  1  0.250000  0.077558  0.664594  1
  K  K1  1  0.250000  0.422442  0.164594  1
  K  K2  1  0.750000  0.922442  0.335406  1
  K  K3  1  0.750000  0.577558  0.835406  1
  Co  Co4  1  0.250000  0.599953  0.543291  1
  Co  Co5  1  0.250000  0.900047  0.043291  1
  Co  Co6  1  0.750000  0.400047  0.456709  1
  Co  Co7  1  0.750000  0.099953  0.956709  1
  N  N8  1  0.250000  0.150903  0.936416  1
  N  N9  1  0.250000  0.349097  0.436416  1
  N  N10  1  0.750000  0.849097  0.063584  1
  N  N11  1  0.750000  0.650903  0.563584  1
