# generated using pymatgen
data_CsCoN
_symmetry_space_group_name_H-M   'P 1'
_cell_length_a   3.52772720
_cell_length_b   7.20961511
_cell_length_c   10.64190787
_cell_angle_alpha   90.00000000
_cell_angle_beta   90.00000000
_cell_angle_gamma   90.00000000
_symmetry_Int_Tables_number   1
_chemical_formula_structural   CsCoN
_chemical_formula_sum   'Cs4 Co4 N4'
_cell_volume   270.66155258
_cell_formula_units_Z   4
loop_
 _symmetry_equiv_pos_site_id
 _symmetry_equiv_pos_as_xyz
  1  'x, y, z'
loop_
 _atom_site_type_symbol
 _atom_site_label
 _atom_site_symmetry_multiplicity
 _atom_site_fract_x
 _atom_site_fract_y
 _atom_site_fract_z
 _atom_site_occupancy
  Cs  Cs0  1  0.250000  0.042999  0.677265  1
  Cs  Cs1  1  0.250000  0.457001  0.177265  1
  Cs  Cs2  1  0.750000  0.957001  0.322735  1
  Cs  Cs3  1  0.750000  0.542999  0.822735  1
  Co  Co4  1  0.250000  0.601280  0.521782  1
  Co  Co5  1  0.250000  0.898720  0.021782  1
  Co  Co6  1  0.750000  0.398720  0.478218  1
  Co  Co7  1  0.750000  0.101280  0.978218  1
  N  N8  1  0.250000  0.150708  0.966899  1
  N  N9  1  0.250000  0.349292  0.466899  1
  N  N10  1  0.750000  0.849292  0.033101  1
  N  N11  1  0.750000  0.650708  0.533101  1
