# generated using pymatgen
data_Sr2MoO4
_symmetry_space_group_name_H-M   'P 1'
_cell_length_a   4.02203522
_cell_length_b   4.02203523
_cell_length_c   7.08951798
_cell_angle_alpha   106.47880858
_cell_angle_beta   106.47880865
_cell_angle_gamma   89.99999997
_symmetry_Int_Tables_number   1
_chemical_formula_structural   Sr2MoO4
_chemical_formula_sum   'Sr2 Mo1 O4'
_cell_volume   105.05298018
_cell_formula_units_Z   1
loop_
 _symmetry_equiv_pos_site_id
 _symmetry_equiv_pos_as_xyz
  1  'x, y, z'
loop_
 _atom_site_type_symbol
 _atom_site_label
 _atom_site_symmetry_multiplicity
 _atom_site_fract_x
 _atom_site_fract_y
 _atom_site_fract_z
 _atom_site_occupancy
  O  O0  1  0.000001  0.499999  1.000000  1
  O  O1  1  0.499999  0.000000  1.000000  1
  O  O2  1  0.835637  0.835638  0.671277  1
  O  O3  1  0.164363  0.164360  0.328723  1
  Sr  Sr4  1  0.349928  0.349927  0.699855  1
  Sr  Sr5  1  0.650072  0.650071  0.300144  1
  Mo  Mo6  1  0.000000  0.000000  0.000000  1
