# generated using pymatgen
data_Ni(AgO)2
_symmetry_space_group_name_H-M   'P 1'
_cell_length_a   3.01482314
_cell_length_b   3.02435514
_cell_length_c   8.00672295
_cell_angle_alpha   80.45606193
_cell_angle_beta   78.99540631
_cell_angle_gamma   60.25065597
_symmetry_Int_Tables_number   1
_chemical_formula_structural   Ni(AgO)2
_chemical_formula_sum   'Ni1 Ag2 O2'
_cell_volume   62.00051441
_cell_formula_units_Z   1
loop_
 _symmetry_equiv_pos_site_id
 _symmetry_equiv_pos_as_xyz
  1  'x, y, z'
loop_
 _atom_site_type_symbol
 _atom_site_label
 _atom_site_symmetry_multiplicity
 _atom_site_fract_x
 _atom_site_fract_y
 _atom_site_fract_z
 _atom_site_occupancy
  Ag  Ag0  1  0.216880  0.210161  0.355653  1
  Ag  Ag1  1  0.783120  0.789839  0.644347  1
  Ni  Ni2  1  0.000000  0.000000  0.000000  1
  O  O3  1  0.610496  0.640801  0.138851  1
  O  O4  1  0.389504  0.359199  0.861149  1
