# generated using pymatgen
data_SmAl4
_symmetry_space_group_name_H-M   'P 1'
_cell_length_a   4.21078817
_cell_length_b   4.21078841
_cell_length_c   6.47712015
_cell_angle_alpha   108.96865782
_cell_angle_beta   108.96866657
_cell_angle_gamma   89.99999638
_symmetry_Int_Tables_number   1
_chemical_formula_structural   SmAl4
_chemical_formula_sum   'Sm1 Al4'
_cell_volume   101.99061628
_cell_formula_units_Z   1
loop_
 _symmetry_equiv_pos_site_id
 _symmetry_equiv_pos_as_xyz
  1  'x, y, z'
loop_
 _atom_site_type_symbol
 _atom_site_label
 _atom_site_symmetry_multiplicity
 _atom_site_fract_x
 _atom_site_fract_y
 _atom_site_fract_z
 _atom_site_occupancy
  Sm  Sm0  1  -0.000000  -0.000000  0.000000  1
  Al  Al1  1  0.609848  0.609848  0.219695  1
  Al  Al2  1  0.750000  0.250000  0.500000  1
  Al  Al3  1  0.390152  0.390152  0.780305  1
  Al  Al4  1  0.250000  0.750000  0.500000  1
