# generated using pymatgen
data_Ta2N
_symmetry_space_group_name_H-M   'P 1'
_cell_length_a   3.10468467
_cell_length_b   3.10468466
_cell_length_c   4.88824887
_cell_angle_alpha   90.00000000
_cell_angle_beta   90.00000000
_cell_angle_gamma   119.99999997
_symmetry_Int_Tables_number   1
_chemical_formula_structural   Ta2N
_chemical_formula_sum   'Ta2 N1'
_cell_volume   40.80552163
_cell_formula_units_Z   1
loop_
 _symmetry_equiv_pos_site_id
 _symmetry_equiv_pos_as_xyz
  1  'x, y, z'
loop_
 _atom_site_type_symbol
 _atom_site_label
 _atom_site_symmetry_multiplicity
 _atom_site_fract_x
 _atom_site_fract_y
 _atom_site_fract_z
 _atom_site_occupancy
  N  N0  1  0.000000  0.000000  0.000000  1
  Ta  Ta1  1  0.666667  0.333333  0.744900  1
  Ta  Ta2  1  0.333333  0.666667  0.255100  1
