# generated using pymatgen
data_BaHg2
_symmetry_space_group_name_H-M   'P 1'
_cell_length_a   5.29138436
_cell_length_b   6.74496151
_cell_length_c   6.74496150
_cell_angle_alpha   78.28629255
_cell_angle_beta   66.90560157
_cell_angle_gamma   66.90560158
_symmetry_Int_Tables_number   1
_chemical_formula_structural   BaHg2
_chemical_formula_sum   'Ba2 Hg4'
_cell_volume   203.34675999
_cell_formula_units_Z   2
loop_
 _symmetry_equiv_pos_site_id
 _symmetry_equiv_pos_as_xyz
  1  'x, y, z'
loop_
 _atom_site_type_symbol
 _atom_site_label
 _atom_site_symmetry_multiplicity
 _atom_site_fract_x
 _atom_site_fract_y
 _atom_site_fract_z
 _atom_site_occupancy
  Ba  Ba0  1  0.499071  0.250929  0.750929  1
  Ba  Ba1  1  0.500929  0.749071  0.249071  1
  Hg  Hg2  1  0.832809  0.165808  0.168573  1
  Hg  Hg3  1  0.167191  0.834192  0.831427  1
  Hg  Hg4  1  0.167191  0.331427  0.334192  1
  Hg  Hg5  1  0.832809  0.668573  0.665808  1
