# generated using pymatgen
data_Ca3Mn2O7
_symmetry_space_group_name_H-M   'P 1'
_cell_length_a   3.79135863
_cell_length_b   3.79135862
_cell_length_c   10.06241829
_cell_angle_alpha   100.85895922
_cell_angle_beta   100.85895927
_cell_angle_gamma   89.99999999
_symmetry_Int_Tables_number   1
_chemical_formula_structural   Ca3Mn2O7
_chemical_formula_sum   'Ca3 Mn2 O7'
_cell_volume   139.41320287
_cell_formula_units_Z   1
loop_
 _symmetry_equiv_pos_site_id
 _symmetry_equiv_pos_as_xyz
  1  'x, y, z'
loop_
 _atom_site_type_symbol
 _atom_site_label
 _atom_site_symmetry_multiplicity
 _atom_site_fract_x
 _atom_site_fract_y
 _atom_site_fract_z
 _atom_site_occupancy
  O  O0  1  0.901913  0.401913  0.803827  1
  O  O1  1  0.401915  0.901913  0.803827  1
  O  O2  1  0.098086  0.598086  0.196173  1
  O  O3  1  0.598088  0.098087  0.196173  1
  O  O4  1  0.801708  0.801709  0.603418  1
  O  O5  1  0.000000  0.000000  0.000000  1
  O  O6  1  0.198292  0.198292  0.396581  1
  Ca  Ca7  1  0.499999  0.500001  1.000000  1
  Ca  Ca8  1  0.316023  0.316022  0.632044  1
  Ca  Ca9  1  0.683977  0.683978  0.367957  1
  Mn  Mn10  1  0.100109  0.100110  0.200219  1
  Mn  Mn11  1  0.899890  0.899891  0.799781  1
