# generated using pymatgen
data_LiGe2N3
_symmetry_space_group_name_H-M   'P 1'
_cell_length_a   5.09919302
_cell_length_b   5.57033875
_cell_length_c   5.56215896
_cell_angle_alpha   120.04865951
_cell_angle_beta   90.00000000
_cell_angle_gamma   90.00000000
_symmetry_Int_Tables_number   1
_chemical_formula_structural   LiGe2N3
_chemical_formula_sum   'Li2 Ge4 N6'
_cell_volume   136.75522615
_cell_formula_units_Z   2
loop_
 _symmetry_equiv_pos_site_id
 _symmetry_equiv_pos_as_xyz
  1  'x, y, z'
loop_
 _atom_site_type_symbol
 _atom_site_label
 _atom_site_symmetry_multiplicity
 _atom_site_fract_x
 _atom_site_fract_y
 _atom_site_fract_z
 _atom_site_occupancy
  Li  Li0  1  0.494612  0.342603  -0.000000  1
  Li  Li1  1  0.994612  0.657397  -0.000000  1
  Ge  Ge2  1  0.492485  0.670366  0.673495  1
  Ge  Ge3  1  0.492485  0.996871  0.326505  1
  Ge  Ge4  1  0.992485  0.329634  0.326505  1
  Ge  Ge5  1  0.992485  0.003129  0.673495  1
  N  N6  1  0.123736  0.664065  0.626372  1
  N  N7  1  0.123736  0.037693  0.373628  1
  N  N8  1  0.623736  0.335935  0.373628  1
  N  N9  1  0.623736  0.962307  0.626372  1
  N  N10  1  0.093946  0.298363  -0.000000  1
  N  N11  1  0.593946  0.701637  -0.000000  1
