# generated using pymatgen
data_ErSi2Ni
_symmetry_space_group_name_H-M   'P 1'
_cell_length_a   3.95223873
_cell_length_b   3.92909501
_cell_length_c   8.48166407
_cell_angle_alpha   103.39263660
_cell_angle_beta   90.00000000
_cell_angle_gamma   90.00000000
_symmetry_Int_Tables_number   1
_chemical_formula_structural   ErSi2Ni
_chemical_formula_sum   'Er2 Si4 Ni2'
_cell_volume   128.12764804
_cell_formula_units_Z   2
loop_
 _symmetry_equiv_pos_site_id
 _symmetry_equiv_pos_as_xyz
  1  'x, y, z'
loop_
 _atom_site_type_symbol
 _atom_site_label
 _atom_site_symmetry_multiplicity
 _atom_site_fract_x
 _atom_site_fract_y
 _atom_site_fract_z
 _atom_site_occupancy
  Si  Si0  1  0.250000  0.250805  0.501609  1
  Si  Si1  1  0.750000  0.749195  0.498391  1
  Si  Si2  1  0.750000  0.460490  0.920981  1
  Si  Si3  1  0.250000  0.539510  0.079019  1
  Ni  Ni4  1  0.750000  0.323965  0.647930  1
  Ni  Ni5  1  0.250000  0.676035  0.352070  1
  Er  Er6  1  0.250000  0.894490  0.788980  1
  Er  Er7  1  0.750000  0.105510  0.211020  1
