# generated using pymatgen
data_ScHCl
_symmetry_space_group_name_H-M   'P 1'
_cell_length_a   9.09140278
_cell_length_b   9.09140263
_cell_length_c   9.09140274
_cell_angle_alpha   22.26588251
_cell_angle_beta   22.26588478
_cell_angle_gamma   22.26588441
_symmetry_Int_Tables_number   1
_chemical_formula_structural   ScHCl
_chemical_formula_sum   'Sc2 H2 Cl2'
_cell_volume   94.60489277
_cell_formula_units_Z   2
loop_
 _symmetry_equiv_pos_site_id
 _symmetry_equiv_pos_as_xyz
  1  'x, y, z'
loop_
 _atom_site_type_symbol
 _atom_site_label
 _atom_site_symmetry_multiplicity
 _atom_site_fract_x
 _atom_site_fract_y
 _atom_site_fract_z
 _atom_site_occupancy
  Sc  Sc0  1  0.880630  0.880630  0.880630  1
  Sc  Sc1  1  0.119370  0.119370  0.119370  1
  H  H2  1  0.804845  0.804845  0.804845  1
  H  H3  1  0.195155  0.195155  0.195155  1
  Cl  Cl4  1  0.391961  0.391961  0.391961  1
  Cl  Cl5  1  0.608039  0.608039  0.608039  1
