# generated using pymatgen
data_CaCl2
_symmetry_space_group_name_H-M   'P 1'
_cell_length_a   4.18526077
_cell_length_b   6.27773972
_cell_length_c   6.49970235
_cell_angle_alpha   90.00000000
_cell_angle_beta   90.00000000
_cell_angle_gamma   90.00000000
_symmetry_Int_Tables_number   1
_chemical_formula_structural   CaCl2
_chemical_formula_sum   'Ca2 Cl4'
_cell_volume   170.77303508
_cell_formula_units_Z   2
loop_
 _symmetry_equiv_pos_site_id
 _symmetry_equiv_pos_as_xyz
  1  'x, y, z'
loop_
 _atom_site_type_symbol
 _atom_site_label
 _atom_site_symmetry_multiplicity
 _atom_site_fract_x
 _atom_site_fract_y
 _atom_site_fract_z
 _atom_site_occupancy
  Ca  Ca0  1  0.000000  0.890781  0.751006  1
  Ca  Ca1  1  0.500000  0.390781  0.248994  1
  Cl  Cl2  1  0.500000  0.134180  0.900845  1
  Cl  Cl3  1  0.000000  0.634180  0.099155  1
  Cl  Cl4  1  0.000000  0.157038  0.407887  1
  Cl  Cl5  1  0.500000  0.657038  0.592113  1
