# generated using pymatgen
data_NdZnSn
_symmetry_space_group_name_H-M   'P 1'
_cell_length_a   4.57661432
_cell_length_b   4.57661432
_cell_length_c   16.61967457
_cell_angle_alpha   90.00000000
_cell_angle_beta   90.00000000
_cell_angle_gamma   119.99999997
_symmetry_Int_Tables_number   1
_chemical_formula_structural   NdZnSn
_chemical_formula_sum   'Nd4 Zn4 Sn4'
_cell_volume   301.46838765
_cell_formula_units_Z   4
loop_
 _symmetry_equiv_pos_site_id
 _symmetry_equiv_pos_as_xyz
  1  'x, y, z'
loop_
 _atom_site_type_symbol
 _atom_site_label
 _atom_site_symmetry_multiplicity
 _atom_site_fract_x
 _atom_site_fract_y
 _atom_site_fract_z
 _atom_site_occupancy
  Zn  Zn0  1  0.666667  0.333333  0.844054  1
  Zn  Zn1  1  0.666667  0.333333  0.655946  1
  Zn  Zn2  1  0.333333  0.666667  0.155946  1
  Zn  Zn3  1  0.333333  0.666667  0.344054  1
  Sn  Sn4  1  0.666667  0.333333  0.115751  1
  Sn  Sn5  1  0.666667  0.333333  0.384249  1
  Sn  Sn6  1  0.333333  0.666667  0.884249  1
  Sn  Sn7  1  0.333333  0.666667  0.615751  1
  Nd  Nd8  1  0.000000  0.000000  0.750000  1
  Nd  Nd9  1  0.000000  0.000000  0.250000  1
  Nd  Nd10  1  0.000000  0.000000  0.500000  1
  Nd  Nd11  1  0.000000  0.000000  0.000000  1
