# generated using pymatgen
data_CSO
_symmetry_space_group_name_H-M   'P 1'
_cell_length_a   4.29712422
_cell_length_b   4.29712472
_cell_length_c   4.29712436
_cell_angle_alpha   99.89756115
_cell_angle_beta   99.89756192
_cell_angle_gamma   99.89756689
_symmetry_Int_Tables_number   1
_chemical_formula_structural   CSO
_chemical_formula_sum   'C1 S1 O1'
_cell_volume   75.32622146
_cell_formula_units_Z   1
loop_
 _symmetry_equiv_pos_site_id
 _symmetry_equiv_pos_as_xyz
  1  'x, y, z'
loop_
 _atom_site_type_symbol
 _atom_site_label
 _atom_site_symmetry_multiplicity
 _atom_site_fract_x
 _atom_site_fract_y
 _atom_site_fract_z
 _atom_site_occupancy
  C  C0  1  0.202132  0.202132  0.202132  1
  S  S1  1  0.460468  0.460468  0.460468  1
  O  O2  1  0.007199  0.007199  0.007199  1
