# generated using pymatgen
data_BiSI
_symmetry_space_group_name_H-M   'P 1'
_cell_length_a   4.20809995
_cell_length_b   8.88705061
_cell_length_c   11.07134203
_cell_angle_alpha   90.00000000
_cell_angle_beta   90.00000000
_cell_angle_gamma   90.00000000
_symmetry_Int_Tables_number   1
_chemical_formula_structural   BiSI
_chemical_formula_sum   'Bi4 S4 I4'
_cell_volume   414.04159001
_cell_formula_units_Z   4
loop_
 _symmetry_equiv_pos_site_id
 _symmetry_equiv_pos_as_xyz
  1  'x, y, z'
loop_
 _atom_site_type_symbol
 _atom_site_label
 _atom_site_symmetry_multiplicity
 _atom_site_fract_x
 _atom_site_fract_y
 _atom_site_fract_z
 _atom_site_occupancy
  S  S0  1  0.750000  0.338215  0.535094  1
  S  S1  1  0.250000  0.161785  0.035094  1
  S  S2  1  0.750000  0.838215  0.964906  1
  S  S3  1  0.250000  0.661785  0.464906  1
  I  I4  1  0.250000  0.478792  0.816927  1
  I  I5  1  0.750000  0.021208  0.316927  1
  I  I6  1  0.250000  0.978792  0.683073  1
  I  I7  1  0.750000  0.521208  0.183073  1
  Bi  Bi8  1  0.250000  0.390074  0.376149  1
  Bi  Bi9  1  0.750000  0.609926  0.623851  1
  Bi  Bi10  1  0.250000  0.890074  0.123851  1
  Bi  Bi11  1  0.750000  0.109926  0.876149  1
