# generated using pymatgen
data_DyCl3
_symmetry_space_group_name_H-M   'P 1'
_cell_length_a   3.79723029
_cell_length_b   6.76717069
_cell_length_c   8.56869929
_cell_angle_alpha   90.00000000
_cell_angle_beta   90.00000000
_cell_angle_gamma   106.29378649
_symmetry_Int_Tables_number   1
_chemical_formula_structural   DyCl3
_chemical_formula_sum   'Dy2 Cl6'
_cell_volume   211.34203230
_cell_formula_units_Z   2
loop_
 _symmetry_equiv_pos_site_id
 _symmetry_equiv_pos_as_xyz
  1  'x, y, z'
loop_
 _atom_site_type_symbol
 _atom_site_label
 _atom_site_symmetry_multiplicity
 _atom_site_fract_x
 _atom_site_fract_y
 _atom_site_fract_z
 _atom_site_occupancy
  Dy  Dy0  1  0.241215  0.482430  0.750000  1
  Dy  Dy1  1  0.758785  0.517570  0.250000  1
  Cl  Cl2  1  0.598186  0.196372  0.750000  1
  Cl  Cl3  1  0.401814  0.803628  0.250000  1
  Cl  Cl4  1  0.156593  0.313186  0.431120  1
  Cl  Cl5  1  0.843407  0.686814  0.568880  1
  Cl  Cl6  1  0.843407  0.686814  0.931120  1
  Cl  Cl7  1  0.156593  0.313186  0.068880  1
