# generated using pymatgen
data_Cu4SiP8
_symmetry_space_group_name_H-M   'P 1'
_cell_length_a   5.73763080
_cell_length_b   9.10874400
_cell_length_c   9.10874400
_cell_angle_alpha   84.30720373
_cell_angle_beta   71.64209542
_cell_angle_gamma   71.64209546
_symmetry_Int_Tables_number   1
_chemical_formula_structural   Cu4SiP8
_chemical_formula_sum   'Si2 Cu8 P16'
_cell_volume   428.82545037
_cell_formula_units_Z   2
loop_
 _symmetry_equiv_pos_site_id
 _symmetry_equiv_pos_as_xyz
  1  'x, y, z'
loop_
 _atom_site_type_symbol
 _atom_site_label
 _atom_site_symmetry_multiplicity
 _atom_site_fract_x
 _atom_site_fract_y
 _atom_site_fract_z
 _atom_site_occupancy
  Si  Si0  1  0.125000  0.250000  0.750000  1
  Si  Si1  1  0.875000  0.750000  0.250000  1
  P  P2  1  0.004842  0.953330  0.277705  1
  P  P3  1  0.458172  0.277705  0.546670  1
  P  P4  1  0.717453  0.777706  0.046670  1
  P  P5  1  0.764122  0.453330  0.777706  1
  P  P6  1  0.995158  0.046670  0.722294  1
  P  P7  1  0.541828  0.722294  0.453330  1
  P  P8  1  0.282547  0.222295  0.953330  1
  P  P9  1  0.235878  0.546670  0.222295  1
  P  P10  1  0.256770  0.868768  0.824110  1
  P  P11  1  0.080880  0.675890  0.868768  1
  P  P12  1  0.625538  0.824110  0.631232  1
  P  P13  1  0.949648  0.631232  0.675890  1
  P  P14  1  0.743230  0.131232  0.175890  1
  P  P15  1  0.919120  0.324110  0.131232  1
  P  P16  1  0.374462  0.175890  0.368768  1
  P  P17  1  0.050352  0.368768  0.324110  1
  Cu  Cu18  1  0.643109  0.537561  0.059162  1
  Cu  Cu19  1  0.702271  0.440838  0.537561  1
  Cu  Cu20  1  0.680670  0.059162  0.962439  1
  Cu  Cu21  1  0.239832  0.962439  0.440838  1
  Cu  Cu22  1  0.356891  0.462439  0.940838  1
  Cu  Cu23  1  0.297729  0.559162  0.462439  1
  Cu  Cu24  1  0.319330  0.940838  0.037561  1
  Cu  Cu25  1  0.760168  0.037561  0.559162  1
