# generated using pymatgen
data_UCl6
_symmetry_space_group_name_H-M   'P 1'
_cell_length_a   11.84839411
_cell_length_b   11.84839412
_cell_length_c   6.46802470
_cell_angle_alpha   90.00000000
_cell_angle_beta   90.00000000
_cell_angle_gamma   120.00000000
_symmetry_Int_Tables_number   1
_chemical_formula_structural   UCl6
_chemical_formula_sum   'U3 Cl18'
_cell_volume   786.35976614
_cell_formula_units_Z   3
loop_
 _symmetry_equiv_pos_site_id
 _symmetry_equiv_pos_as_xyz
  1  'x, y, z'
loop_
 _atom_site_type_symbol
 _atom_site_label
 _atom_site_symmetry_multiplicity
 _atom_site_fract_x
 _atom_site_fract_y
 _atom_site_fract_z
 _atom_site_occupancy
  Cl  Cl0  1  0.235124  0.764876  0.705546  1
  Cl  Cl1  1  0.235124  0.470247  0.705546  1
  Cl  Cl2  1  0.529753  0.764876  0.705546  1
  Cl  Cl3  1  0.098154  0.901846  0.221162  1
  Cl  Cl4  1  0.098154  0.196309  0.221162  1
  Cl  Cl5  1  0.803691  0.901846  0.221162  1
  Cl  Cl6  1  0.196309  0.098154  0.778838  1
  Cl  Cl7  1  0.901846  0.803691  0.778838  1
  Cl  Cl8  1  0.901846  0.098154  0.778838  1
  Cl  Cl9  1  0.431771  0.568229  0.265120  1
  Cl  Cl10  1  0.431771  0.863542  0.265120  1
  Cl  Cl11  1  0.136458  0.568229  0.265120  1
  Cl  Cl12  1  0.863542  0.431771  0.734880  1
  Cl  Cl13  1  0.568229  0.136458  0.734880  1
  Cl  Cl14  1  0.568229  0.431771  0.734880  1
  Cl  Cl15  1  0.764876  0.235124  0.294454  1
  Cl  Cl16  1  0.764876  0.529753  0.294454  1
  Cl  Cl17  1  0.470247  0.235124  0.294454  1
  U  U18  1  0.666667  0.333333  0.514924  1
  U  U19  1  0.333333  0.666667  0.485076  1
  U  U20  1  0.000000  0.000000  0.000000  1
