# generated using pymatgen
data_CuN3
_symmetry_space_group_name_H-M   'P 1'
_cell_length_a   5.81457768
_cell_length_b   6.92925590
_cell_length_c   6.92925590
_cell_angle_alpha   79.86100806
_cell_angle_beta   65.19273082
_cell_angle_gamma   65.19273083
_symmetry_Int_Tables_number   1
_chemical_formula_structural   CuN3
_chemical_formula_sum   'Cu4 N12'
_cell_volume   230.03782777
_cell_formula_units_Z   4
loop_
 _symmetry_equiv_pos_site_id
 _symmetry_equiv_pos_as_xyz
  1  'x, y, z'
loop_
 _atom_site_type_symbol
 _atom_site_label
 _atom_site_symmetry_multiplicity
 _atom_site_fract_x
 _atom_site_fract_y
 _atom_site_fract_z
 _atom_site_occupancy
  N  N0  1  0.812885  0.450588  0.541906  1
  N  N1  1  0.354791  0.958094  0.450588  1
  N  N2  1  0.763473  0.541906  0.049412  1
  N  N3  1  0.805379  0.049412  0.958094  1
  N  N4  1  0.000000  0.000000  0.000000  1
  N  N5  1  0.000000  0.500000  0.000000  1
  N  N6  1  0.500000  0.000000  0.500000  1
  N  N7  1  0.000000  0.500000  0.500000  1
  N  N8  1  0.194621  0.950588  0.041906  1
  N  N9  1  0.236527  0.458094  0.950588  1
  N  N10  1  0.645209  0.041906  0.549412  1
  N  N11  1  0.187115  0.549412  0.458094  1
  Cu  Cu12  1  0.500000  0.500000  0.500000  1
  Cu  Cu13  1  0.000000  0.000000  0.500000  1
  Cu  Cu14  1  0.500000  0.500000  0.000000  1
  Cu  Cu15  1  0.500000  0.000000  0.000000  1
