# generated using pymatgen
data_Ba2NdCu3O7
_symmetry_space_group_name_H-M   'P 1'
_cell_length_a   3.89381731
_cell_length_b   3.95845766
_cell_length_c   11.89946951
_cell_angle_alpha   90.00000000
_cell_angle_beta   90.00000000
_cell_angle_gamma   90.00000000
_symmetry_Int_Tables_number   1
_chemical_formula_structural   Ba2NdCu3O7
_chemical_formula_sum   'Ba2 Nd1 Cu3 O7'
_cell_volume   183.41260368
_cell_formula_units_Z   1
loop_
 _symmetry_equiv_pos_site_id
 _symmetry_equiv_pos_as_xyz
  1  'x, y, z'
loop_
 _atom_site_type_symbol
 _atom_site_label
 _atom_site_symmetry_multiplicity
 _atom_site_fract_x
 _atom_site_fract_y
 _atom_site_fract_z
 _atom_site_occupancy
  O  O0  1  0.000000  0.000000  0.842078  1
  O  O1  1  0.000000  0.000000  0.157922  1
  O  O2  1  0.000000  0.500000  0.628892  1
  O  O3  1  0.000000  0.500000  0.371108  1
  O  O4  1  0.500000  0.000000  0.627690  1
  O  O5  1  0.500000  0.000000  0.372310  1
  O  O6  1  0.000000  0.500000  0.000000  1
  Cu  Cu7  1  0.000000  0.000000  0.652801  1
  Cu  Cu8  1  0.000000  0.000000  0.347199  1
  Cu  Cu9  1  0.000000  0.000000  0.000000  1
  Ba  Ba10  1  0.500000  0.500000  0.820802  1
  Ba  Ba11  1  0.500000  0.500000  0.179198  1
  Nd  Nd12  1  0.500000  0.500000  0.500000  1
