# generated using pymatgen
data_AgN3
_symmetry_space_group_name_H-M   'P 1'
_cell_length_a   5.35029713
_cell_length_b   5.35029714
_cell_length_c   5.35029713
_cell_angle_alpha   106.99455315
_cell_angle_beta   102.68384043
_cell_angle_gamma   119.21893737
_symmetry_Int_Tables_number   1
_chemical_formula_structural   AgN3
_chemical_formula_sum   'Ag2 N6'
_cell_volume   115.16433803
_cell_formula_units_Z   2
loop_
 _symmetry_equiv_pos_site_id
 _symmetry_equiv_pos_as_xyz
  1  'x, y, z'
loop_
 _atom_site_type_symbol
 _atom_site_label
 _atom_site_symmetry_multiplicity
 _atom_site_fract_x
 _atom_site_fract_y
 _atom_site_fract_z
 _atom_site_occupancy
  N  N0  1  0.280294  0.186879  0.093416  1
  N  N1  1  0.093463  0.686879  0.406584  1
  N  N2  1  0.000000  0.000000  0.000000  1
  N  N3  1  0.000000  0.500000  0.500000  1
  N  N4  1  0.719706  0.813121  0.906584  1
  N  N5  1  0.906537  0.313121  0.593416  1
  Ag  Ag6  1  0.500000  0.250000  0.750000  1
  Ag  Ag7  1  0.500000  0.750000  0.250000  1
