# generated using pymatgen
data_CBrN
_symmetry_space_group_name_H-M   'P 1'
_cell_length_a   4.41944973
_cell_length_b   5.75100386
_cell_length_c   6.38990013
_cell_angle_alpha   90.00000000
_cell_angle_beta   90.00000000
_cell_angle_gamma   90.00000000
_symmetry_Int_Tables_number   1
_chemical_formula_structural   CBrN
_chemical_formula_sum   'C2 Br2 N2'
_cell_volume   162.40744267
_cell_formula_units_Z   2
loop_
 _symmetry_equiv_pos_site_id
 _symmetry_equiv_pos_as_xyz
  1  'x, y, z'
loop_
 _atom_site_type_symbol
 _atom_site_label
 _atom_site_symmetry_multiplicity
 _atom_site_fract_x
 _atom_site_fract_y
 _atom_site_fract_z
 _atom_site_occupancy
  C  C0  1  0.750000  0.549414  0.750000  1
  C  C1  1  0.250000  0.450586  0.250000  1
  N  N2  1  0.250000  0.654094  0.250000  1
  N  N3  1  0.750000  0.345906  0.750000  1
  Br  Br4  1  0.750000  0.861390  0.750000  1
  Br  Br5  1  0.250000  0.138610  0.250000  1
