# generated using pymatgen
data_Fe3Ge
_symmetry_space_group_name_H-M   'P 1'
_cell_length_a   5.13582092
_cell_length_b   5.13582091
_cell_length_c   4.22014084
_cell_angle_alpha   90.00000000
_cell_angle_beta   90.00000000
_cell_angle_gamma   120.00000003
_symmetry_Int_Tables_number   1
_chemical_formula_structural   Fe3Ge
_chemical_formula_sum   'Fe6 Ge2'
_cell_volume   96.40006353
_cell_formula_units_Z   2
loop_
 _symmetry_equiv_pos_site_id
 _symmetry_equiv_pos_as_xyz
  1  'x, y, z'
loop_
 _atom_site_type_symbol
 _atom_site_label
 _atom_site_symmetry_multiplicity
 _atom_site_fract_x
 _atom_site_fract_y
 _atom_site_fract_z
 _atom_site_occupancy
  Fe  Fe0  1  0.837524  0.675048  0.250000  1
  Fe  Fe1  1  0.162476  0.837524  0.750000  1
  Fe  Fe2  1  0.675048  0.837524  0.750000  1
  Fe  Fe3  1  0.324952  0.162476  0.250000  1
  Fe  Fe4  1  0.837524  0.162476  0.250000  1
  Fe  Fe5  1  0.162476  0.324952  0.750000  1
  Ge  Ge6  1  0.333333  0.666667  0.250000  1
  Ge  Ge7  1  0.666667  0.333333  0.750000  1
