# generated using pymatgen
data_MnSn2
_symmetry_space_group_name_H-M   'P 1'
_cell_length_a   5.42599889
_cell_length_b   5.41875278
_cell_length_c   5.41875278
_cell_angle_alpha   75.48289273
_cell_angle_beta   59.95575493
_cell_angle_gamma   59.95575501
_symmetry_Int_Tables_number   1
_chemical_formula_structural   MnSn2
_chemical_formula_sum   'Mn2 Sn4'
_cell_volume   119.38562577
_cell_formula_units_Z   2
loop_
 _symmetry_equiv_pos_site_id
 _symmetry_equiv_pos_as_xyz
  1  'x, y, z'
loop_
 _atom_site_type_symbol
 _atom_site_label
 _atom_site_symmetry_multiplicity
 _atom_site_fract_x
 _atom_site_fract_y
 _atom_site_fract_z
 _atom_site_occupancy
  Mn  Mn0  1  0.250000  0.000000  0.000000  1
  Mn  Mn1  1  0.750000  0.000000  0.000000  1
  Sn  Sn2  1  0.335114  0.829773  0.500000  1
  Sn  Sn3  1  0.835114  0.500000  0.829773  1
  Sn  Sn4  1  0.164886  0.500000  0.170227  1
  Sn  Sn5  1  0.664886  0.170227  0.500000  1
