# generated using pymatgen
data_NiCl2
_symmetry_space_group_name_H-M   'P 1'
_cell_length_a   6.04912995
_cell_length_b   6.04913015
_cell_length_c   6.04912948
_cell_angle_alpha   33.24525945
_cell_angle_beta   33.24525634
_cell_angle_gamma   33.24526010
_symmetry_Int_Tables_number   1
_chemical_formula_structural   NiCl2
_chemical_formula_sum   'Ni1 Cl2'
_cell_volume   59.22647193
_cell_formula_units_Z   1
loop_
 _symmetry_equiv_pos_site_id
 _symmetry_equiv_pos_as_xyz
  1  'x, y, z'
loop_
 _atom_site_type_symbol
 _atom_site_label
 _atom_site_symmetry_multiplicity
 _atom_site_fract_x
 _atom_site_fract_y
 _atom_site_fract_z
 _atom_site_occupancy
  Ni  Ni0  1  0.000000  0.000000  0.000000  1
  Cl  Cl1  1  0.257042  0.257042  0.257042  1
  Cl  Cl2  1  0.742958  0.742958  0.742958  1
