# generated using pymatgen
data_Cu2Se
_symmetry_space_group_name_H-M   'P 1'
_cell_length_a   4.09028054
_cell_length_b   4.09028096
_cell_length_c   4.09028083
_cell_angle_alpha   60.00000975
_cell_angle_beta   60.00000625
_cell_angle_gamma   60.00000272
_symmetry_Int_Tables_number   1
_chemical_formula_structural   Cu2Se
_chemical_formula_sum   'Cu2 Se1'
_cell_volume   48.38875260
_cell_formula_units_Z   1
loop_
 _symmetry_equiv_pos_site_id
 _symmetry_equiv_pos_as_xyz
  1  'x, y, z'
loop_
 _atom_site_type_symbol
 _atom_site_label
 _atom_site_symmetry_multiplicity
 _atom_site_fract_x
 _atom_site_fract_y
 _atom_site_fract_z
 _atom_site_occupancy
  Cu  Cu0  1  0.500000  0.500000  0.500000  1
  Cu  Cu1  1  0.250000  0.250000  0.250000  1
  Se  Se2  1  -0.000000  0.000000  -0.000000  1
