# generated using pymatgen
data_MoN
_symmetry_space_group_name_H-M   'P 1'
_cell_length_a   6.78788990
_cell_length_b   6.78788990
_cell_length_c   4.96836236
_cell_angle_alpha   90.00000000
_cell_angle_beta   90.00000000
_cell_angle_gamma   120.00000001
_symmetry_Int_Tables_number   1
_chemical_formula_structural   MoN
_chemical_formula_sum   'Mo8 N8'
_cell_volume   198.25012662
_cell_formula_units_Z   8
loop_
 _symmetry_equiv_pos_site_id
 _symmetry_equiv_pos_as_xyz
  1  'x, y, z'
loop_
 _atom_site_type_symbol
 _atom_site_label
 _atom_site_symmetry_multiplicity
 _atom_site_fract_x
 _atom_site_fract_y
 _atom_site_fract_z
 _atom_site_occupancy
  N  N0  1  0.833330  0.166670  0.000000  1
  N  N1  1  0.333340  0.166670  0.000000  1
  N  N2  1  0.833330  0.666660  0.000000  1
  N  N3  1  0.166670  0.833330  0.000000  1
  N  N4  1  0.666660  0.833330  0.000000  1
  N  N5  1  0.166670  0.333340  0.000000  1
  N  N6  1  0.666667  0.333333  0.000000  1
  N  N7  1  0.333333  0.666667  0.000000  1
  Mo  Mo8  1  0.500047  0.500047  0.749509  1
  Mo  Mo9  1  0.499953  0.000000  0.749509  1
  Mo  Mo10  1  0.000000  0.499953  0.749509  1
  Mo  Mo11  1  0.499953  0.499953  0.250491  1
  Mo  Mo12  1  0.000000  0.500047  0.250491  1
  Mo  Mo13  1  0.500047  0.000000  0.250491  1
  Mo  Mo14  1  0.000000  0.000000  0.749578  1
  Mo  Mo15  1  0.000000  0.000000  0.250422  1
