# generated using pymatgen
data_UI3
_symmetry_space_group_name_H-M   'P 1'
_cell_length_a   4.21518870
_cell_length_b   8.02369697
_cell_length_c   10.01992909
_cell_angle_alpha   90.00000000
_cell_angle_beta   90.00000000
_cell_angle_gamma   105.22862269
_symmetry_Int_Tables_number   1
_chemical_formula_structural   UI3
_chemical_formula_sum   'U2 I6'
_cell_volume   326.98807947
_cell_formula_units_Z   2
loop_
 _symmetry_equiv_pos_site_id
 _symmetry_equiv_pos_as_xyz
  1  'x, y, z'
loop_
 _atom_site_type_symbol
 _atom_site_label
 _atom_site_symmetry_multiplicity
 _atom_site_fract_x
 _atom_site_fract_y
 _atom_site_fract_z
 _atom_site_occupancy
  I  I0  1  0.345355  0.690711  0.432472  1
  I  I1  1  0.654645  0.309289  0.567528  1
  I  I2  1  0.909882  0.819764  0.750000  1
  I  I3  1  0.090118  0.180236  0.250000  1
  I  I4  1  0.345355  0.690711  0.067528  1
  I  I5  1  0.654645  0.309289  0.932472  1
  U  U6  1  0.738343  0.476687  0.250000  1
  U  U7  1  0.261657  0.523313  0.750000  1
