# generated using pymatgen
data_Pb3O4
_symmetry_space_group_name_H-M   'P 1'
_cell_length_a   6.76865608
_cell_length_b   9.07019236
_cell_length_c   9.07019236
_cell_angle_alpha   90.00000000
_cell_angle_beta   90.00000000
_cell_angle_gamma   90.00000000
_symmetry_Int_Tables_number   1
_chemical_formula_structural   Pb3O4
_chemical_formula_sum   'Pb12 O16'
_cell_volume   556.84643442
_cell_formula_units_Z   4
loop_
 _symmetry_equiv_pos_site_id
 _symmetry_equiv_pos_as_xyz
  1  'x, y, z'
loop_
 _atom_site_type_symbol
 _atom_site_label
 _atom_site_symmetry_multiplicity
 _atom_site_fract_x
 _atom_site_fract_y
 _atom_site_fract_z
 _atom_site_occupancy
  Pb  Pb0  1  0.500000  0.166999  0.851802  1
  Pb  Pb1  1  0.000000  0.851802  0.833001  1
  Pb  Pb2  1  0.000000  0.148198  0.166999  1
  Pb  Pb3  1  0.500000  0.333001  0.351802  1
  Pb  Pb4  1  0.000000  0.648198  0.333001  1
  Pb  Pb5  1  0.750000  0.000000  0.500000  1
  Pb  Pb6  1  0.250000  0.500000  0.000000  1
  Pb  Pb7  1  0.000000  0.351802  0.666999  1
  Pb  Pb8  1  0.250000  0.000000  0.500000  1
  Pb  Pb9  1  0.500000  0.833001  0.148198  1
  Pb  Pb10  1  0.500000  0.666999  0.648198  1
  Pb  Pb11  1  0.750000  0.500000  0.000000  1
  O  O12  1  0.500000  0.865456  0.407644  1
  O  O13  1  0.750000  0.170522  0.329478  1
  O  O14  1  0.000000  0.907644  0.365456  1
  O  O15  1  0.250000  0.670522  0.170522  1
  O  O16  1  0.250000  0.329478  0.829478  1
  O  O17  1  0.500000  0.134544  0.592356  1
  O  O18  1  0.000000  0.592356  0.865456  1
  O  O19  1  0.250000  0.170522  0.329478  1
  O  O20  1  0.500000  0.365456  0.092356  1
  O  O21  1  0.750000  0.829478  0.670522  1
  O  O22  1  0.750000  0.329478  0.829478  1
  O  O23  1  0.000000  0.092356  0.634544  1
  O  O24  1  0.000000  0.407644  0.134544  1
  O  O25  1  0.250000  0.829478  0.670522  1
  O  O26  1  0.750000  0.670522  0.170522  1
  O  O27  1  0.500000  0.634544  0.907644  1
