# generated using pymatgen
data_Ho(SiRh)2
_symmetry_space_group_name_H-M   'P 1'
_cell_length_a   4.06143080
_cell_length_b   4.06143080
_cell_length_c   5.75351559
_cell_angle_alpha   110.66798530
_cell_angle_beta   110.66798530
_cell_angle_gamma   90.00000007
_symmetry_Int_Tables_number   1
_chemical_formula_structural   Ho(SiRh)2
_chemical_formula_sum   'Ho1 Si2 Rh2'
_cell_volume   82.23712072
_cell_formula_units_Z   1
loop_
 _symmetry_equiv_pos_site_id
 _symmetry_equiv_pos_as_xyz
  1  'x, y, z'
loop_
 _atom_site_type_symbol
 _atom_site_label
 _atom_site_symmetry_multiplicity
 _atom_site_fract_x
 _atom_site_fract_y
 _atom_site_fract_z
 _atom_site_occupancy
  Si  Si0  1  0.621230  0.621230  0.242460  1
  Si  Si1  1  0.378770  0.378770  0.757540  1
  Rh  Rh2  1  0.250000  0.750000  0.500000  1
  Rh  Rh3  1  0.750000  0.250000  0.500000  1
  Ho  Ho4  1  0.000000  0.000000  0.000000  1
