# generated using pymatgen
data_Bi2Te3
_symmetry_space_group_name_H-M   'P 1'
_cell_length_a   10.63454512
_cell_length_b   10.63454502
_cell_length_c   10.63454539
_cell_angle_alpha   24.20310545
_cell_angle_beta   24.20310660
_cell_angle_gamma   24.20310366
_symmetry_Int_Tables_number   1
_chemical_formula_structural   Bi2Te3
_chemical_formula_sum   'Bi2 Te3'
_cell_volume   177.66563043
_cell_formula_units_Z   1
loop_
 _symmetry_equiv_pos_site_id
 _symmetry_equiv_pos_as_xyz
  1  'x, y, z'
loop_
 _atom_site_type_symbol
 _atom_site_label
 _atom_site_symmetry_multiplicity
 _atom_site_fract_x
 _atom_site_fract_y
 _atom_site_fract_z
 _atom_site_occupancy
  Bi  Bi0  1  0.399727  0.399727  0.399727  1
  Bi  Bi1  1  0.600273  0.600273  0.600273  1
  Te  Te2  1  0.000000  0.000000  0.000000  1
  Te  Te3  1  0.211043  0.211043  0.211043  1
  Te  Te4  1  0.788957  0.788957  0.788957  1
