# generated using pymatgen
data_YMgNi4
_symmetry_space_group_name_H-M   'P 1'
_cell_length_a   4.94634516
_cell_length_b   4.94634516
_cell_length_c   4.94634516
_cell_angle_alpha   59.99999998
_cell_angle_beta   59.99999997
_cell_angle_gamma   60.00000003
_symmetry_Int_Tables_number   1
_chemical_formula_structural   YMgNi4
_chemical_formula_sum   'Y1 Mg1 Ni4'
_cell_volume   85.57329545
_cell_formula_units_Z   1
loop_
 _symmetry_equiv_pos_site_id
 _symmetry_equiv_pos_as_xyz
  1  'x, y, z'
loop_
 _atom_site_type_symbol
 _atom_site_label
 _atom_site_symmetry_multiplicity
 _atom_site_fract_x
 _atom_site_fract_y
 _atom_site_fract_z
 _atom_site_occupancy
  Mg  Mg0  1  0.250000  0.250000  0.250000  1
  Ni  Ni1  1  0.623847  0.623847  0.623847  1
  Ni  Ni2  1  0.623847  0.128459  0.623847  1
  Ni  Ni3  1  0.623847  0.623847  0.128459  1
  Ni  Ni4  1  0.128459  0.623847  0.623847  1
  Y  Y5  1  0.000000  0.000000  0.000000  1
