# generated using pymatgen
data_Ag2S
_symmetry_space_group_name_H-M   'P 1'
_cell_length_a   4.35760732
_cell_length_b   5.89172768
_cell_length_c   9.09505956
_cell_angle_alpha   90.00000000
_cell_angle_beta   141.69276105
_cell_angle_gamma   90.00000000
_symmetry_Int_Tables_number   1
_chemical_formula_structural   Ag2S
_chemical_formula_sum   'Ag4 S2'
_cell_volume   144.74469419
_cell_formula_units_Z   2
loop_
 _symmetry_equiv_pos_site_id
 _symmetry_equiv_pos_as_xyz
  1  'x, y, z'
loop_
 _atom_site_type_symbol
 _atom_site_label
 _atom_site_symmetry_multiplicity
 _atom_site_fract_x
 _atom_site_fract_y
 _atom_site_fract_z
 _atom_site_occupancy
  Ag  Ag0  1  0.097228  0.942393  0.003617  1
  Ag  Ag1  1  0.944499  0.536767  0.479246  1
  Ag  Ag2  1  0.055505  0.036768  0.520756  1
  Ag  Ag3  1  0.902770  0.442392  0.996382  1
  S  S4  1  0.680745  0.270840  0.191671  1
  S  S5  1  0.319253  0.770841  0.808328  1
