# generated using pymatgen
data_TbCd2
_symmetry_space_group_name_H-M   'P 1'
_cell_length_a   5.01522555
_cell_length_b   5.00614650
_cell_length_c   3.41617397
_cell_angle_alpha   89.99999991
_cell_angle_beta   89.96931349
_cell_angle_gamma   119.94013437
_symmetry_Int_Tables_number   1
_chemical_formula_structural   TbCd2
_chemical_formula_sum   'Tb1 Cd2'
_cell_volume   74.32351192
_cell_formula_units_Z   1
loop_
 _symmetry_equiv_pos_site_id
 _symmetry_equiv_pos_as_xyz
  1  'x, y, z'
loop_
 _atom_site_type_symbol
 _atom_site_label
 _atom_site_symmetry_multiplicity
 _atom_site_fract_x
 _atom_site_fract_y
 _atom_site_fract_z
 _atom_site_occupancy
  Tb  Tb0  1  0.000000  0.000000  0.000000  1
  Cd  Cd1  1  0.666328  0.333164  0.493098  1
  Cd  Cd2  1  0.333672  0.666836  0.506902  1
