# generated using pymatgen
data_AgBiI4
_symmetry_space_group_name_H-M   'P 1'
_cell_length_a   8.98545741
_cell_length_b   8.92827131
_cell_length_c   8.98545741
_cell_angle_alpha   60.21030798
_cell_angle_beta   58.67405105
_cell_angle_gamma   60.21030995
_symmetry_Int_Tables_number   1
_chemical_formula_structural   AgBiI4
_chemical_formula_sum   'Ag2 Bi2 I8'
_cell_volume   505.98483028
_cell_formula_units_Z   2
loop_
 _symmetry_equiv_pos_site_id
 _symmetry_equiv_pos_as_xyz
  1  'x, y, z'
loop_
 _atom_site_type_symbol
 _atom_site_label
 _atom_site_symmetry_multiplicity
 _atom_site_fract_x
 _atom_site_fract_y
 _atom_site_fract_z
 _atom_site_occupancy
  Ag  Ag0  1  0.000000  0.000000  0.500000  1
  Ag  Ag1  1  0.500000  0.000000  0.000000  1
  Bi  Bi2  1  0.000000  0.000000  0.000000  1
  Bi  Bi3  1  0.000000  0.500000  0.000000  1
  I  I4  1  0.240824  0.242555  0.240824  1
  I  I5  1  0.240824  0.775798  0.240824  1
  I  I6  1  0.245512  0.254760  0.744968  1
  I  I7  1  0.744968  0.254760  0.245512  1
  I  I8  1  0.255032  0.745240  0.754488  1
  I  I9  1  0.759176  0.224202  0.759176  1
  I  I10  1  0.754488  0.745240  0.255032  1
  I  I11  1  0.759176  0.757445  0.759176  1
