# generated using pymatgen
data_VGaNi2
_symmetry_space_group_name_H-M   'P 1'
_cell_length_a   4.09394389
_cell_length_b   4.09394454
_cell_length_c   4.09394423
_cell_angle_alpha   60.00000262
_cell_angle_beta   59.99999737
_cell_angle_gamma   59.99999878
_symmetry_Int_Tables_number   1
_chemical_formula_structural   VGaNi2
_chemical_formula_sum   'V1 Ga1 Ni2'
_cell_volume   48.51887946
_cell_formula_units_Z   1
loop_
 _symmetry_equiv_pos_site_id
 _symmetry_equiv_pos_as_xyz
  1  'x, y, z'
loop_
 _atom_site_type_symbol
 _atom_site_label
 _atom_site_symmetry_multiplicity
 _atom_site_fract_x
 _atom_site_fract_y
 _atom_site_fract_z
 _atom_site_occupancy
  Ga  Ga0  1  0.000000  0.000000  0.000000  1
  Ni  Ni1  1  0.250000  0.250000  0.250000  1
  Ni  Ni2  1  0.750000  0.750000  0.750000  1
  V  V3  1  0.500000  0.500000  0.500000  1
