# generated using pymatgen
data_LaScO3
_symmetry_space_group_name_H-M   'P 1'
_cell_length_a   5.70395112
_cell_length_b   5.83569072
_cell_length_c   8.15251789
_cell_angle_alpha   90.00000000
_cell_angle_beta   90.00000000
_cell_angle_gamma   90.00000000
_symmetry_Int_Tables_number   1
_chemical_formula_structural   LaScO3
_chemical_formula_sum   'La4 Sc4 O12'
_cell_volume   271.36874287
_cell_formula_units_Z   4
loop_
 _symmetry_equiv_pos_site_id
 _symmetry_equiv_pos_as_xyz
  1  'x, y, z'
loop_
 _atom_site_type_symbol
 _atom_site_label
 _atom_site_symmetry_multiplicity
 _atom_site_fract_x
 _atom_site_fract_y
 _atom_site_fract_z
 _atom_site_occupancy
  La  La0  1  0.012029  0.954977  0.250000  1
  La  La1  1  0.512029  0.545023  0.750000  1
  La  La2  1  0.487971  0.454977  0.250000  1
  La  La3  1  0.987971  0.045023  0.750000  1
  Sc  Sc4  1  0.000000  0.500000  0.000000  1
  Sc  Sc5  1  0.500000  0.000000  0.000000  1
  Sc  Sc6  1  0.500000  0.000000  0.500000  1
  Sc  Sc7  1  0.000000  0.500000  0.500000  1
  O  O8  1  0.897876  0.535075  0.250000  1
  O  O9  1  0.397876  0.964925  0.750000  1
  O  O10  1  0.602124  0.035075  0.250000  1
  O  O11  1  0.102124  0.464925  0.750000  1
  O  O12  1  0.703471  0.296690  0.945551  1
  O  O13  1  0.203471  0.203310  0.054449  1
  O  O14  1  0.796529  0.796690  0.554449  1
  O  O15  1  0.296529  0.703310  0.445551  1
  O  O16  1  0.296529  0.703310  0.054449  1
  O  O17  1  0.796529  0.796690  0.945551  1
  O  O18  1  0.203471  0.203310  0.445551  1
  O  O19  1  0.703471  0.296690  0.554449  1
