# generated using pymatgen
data_Fe2CoGe
_symmetry_space_group_name_H-M   'P 1'
_cell_length_a   4.04805544
_cell_length_b   4.04805545
_cell_length_c   4.04805553
_cell_angle_alpha   59.99999945
_cell_angle_beta   59.99999932
_cell_angle_gamma   59.99999967
_symmetry_Int_Tables_number   1
_chemical_formula_structural   Fe2CoGe
_chemical_formula_sum   'Fe2 Co1 Ge1'
_cell_volume   46.90556406
_cell_formula_units_Z   1
loop_
 _symmetry_equiv_pos_site_id
 _symmetry_equiv_pos_as_xyz
  1  'x, y, z'
loop_
 _atom_site_type_symbol
 _atom_site_label
 _atom_site_symmetry_multiplicity
 _atom_site_fract_x
 _atom_site_fract_y
 _atom_site_fract_z
 _atom_site_occupancy
  Co  Co0  1  0.000000  0.000000  0.000000  1
  Fe  Fe1  1  0.250000  0.250000  0.250000  1
  Fe  Fe2  1  0.750000  0.750000  0.750000  1
  Ge  Ge3  1  0.500000  0.500000  0.500000  1
