# generated using pymatgen
data_SiPd
_symmetry_space_group_name_H-M   'P 1'
_cell_length_a   3.47649346
_cell_length_b   5.62856977
_cell_length_c   6.17890533
_cell_angle_alpha   90.00000000
_cell_angle_beta   90.00000000
_cell_angle_gamma   90.00000000
_symmetry_Int_Tables_number   1
_chemical_formula_structural   SiPd
_chemical_formula_sum   'Si4 Pd4'
_cell_volume   120.90687929
_cell_formula_units_Z   4
loop_
 _symmetry_equiv_pos_site_id
 _symmetry_equiv_pos_as_xyz
  1  'x, y, z'
loop_
 _atom_site_type_symbol
 _atom_site_label
 _atom_site_symmetry_multiplicity
 _atom_site_fract_x
 _atom_site_fract_y
 _atom_site_fract_z
 _atom_site_occupancy
  Si  Si0  1  0.250000  0.677311  0.926864  1
  Si  Si1  1  0.750000  0.322689  0.073136  1
  Si  Si2  1  0.250000  0.177311  0.573136  1
  Si  Si3  1  0.750000  0.822689  0.426864  1
  Pd  Pd4  1  0.250000  0.504231  0.308925  1
  Pd  Pd5  1  0.750000  0.495769  0.691075  1
  Pd  Pd6  1  0.250000  0.004231  0.191075  1
  Pd  Pd7  1  0.750000  0.995769  0.808925  1
