# generated using pymatgen
data_Mn2CrO4
_symmetry_space_group_name_H-M   'P 1'
_cell_length_a   5.96576098
_cell_length_b   5.96576098
_cell_length_c   6.14166082
_cell_angle_alpha   118.81561691
_cell_angle_beta   118.81561691
_cell_angle_gamma   89.90559880
_symmetry_Int_Tables_number   1
_chemical_formula_structural   Mn2CrO4
_chemical_formula_sum   'Mn4 Cr2 O8'
_cell_volume   160.04874911
_cell_formula_units_Z   2
loop_
 _symmetry_equiv_pos_site_id
 _symmetry_equiv_pos_as_xyz
  1  'x, y, z'
loop_
 _atom_site_type_symbol
 _atom_site_label
 _atom_site_symmetry_multiplicity
 _atom_site_fract_x
 _atom_site_fract_y
 _atom_site_fract_z
 _atom_site_occupancy
  Mn  Mn0  1  0.125000  0.375000  0.750000  1
  Mn  Mn1  1  0.625000  0.875000  0.250000  1
  Mn  Mn2  1  0.004996  0.995004  0.000000  1
  Mn  Mn3  1  0.245004  0.754996  0.500000  1
  Cr  Cr4  1  0.625000  0.375000  0.750000  1
  Cr  Cr5  1  0.625000  0.375000  0.250000  1
  O  O6  1  0.366435  0.594517  0.751047  1
  O  O7  1  0.405483  0.633565  0.248953  1
  O  O8  1  0.883565  0.155483  0.748953  1
  O  O9  1  0.844517  0.116435  0.251047  1
  O  O10  1  0.390924  0.170476  0.793415  1
  O  O11  1  0.420476  0.140924  0.293415  1
  O  O12  1  0.859076  0.579524  0.706584  1
  O  O13  1  0.829524  0.609076  0.206584  1
