# generated using pymatgen
data_WBr4O
_symmetry_space_group_name_H-M   'P 1'
_cell_length_a   3.84518446
_cell_length_b   7.32355927
_cell_length_c   7.32355927
_cell_angle_alpha   86.04818148
_cell_angle_beta   74.78026442
_cell_angle_gamma   74.78026442
_symmetry_Int_Tables_number   1
_chemical_formula_structural   WBr4O
_chemical_formula_sum   'W1 Br4 O1'
_cell_volume   192.02143468
_cell_formula_units_Z   1
loop_
 _symmetry_equiv_pos_site_id
 _symmetry_equiv_pos_as_xyz
  1  'x, y, z'
loop_
 _atom_site_type_symbol
 _atom_site_label
 _atom_site_symmetry_multiplicity
 _atom_site_fract_x
 _atom_site_fract_y
 _atom_site_fract_z
 _atom_site_occupancy
  O  O0  1  0.519410  0.000000  0.000000  1
  Br  Br1  1  0.257474  0.818968  0.696882  1
  Br  Br2  1  0.773326  0.181032  0.303117  1
  Br  Br3  1  0.076443  0.696882  0.181032  1
  Br  Br4  1  0.954357  0.303118  0.818967  1
  W  W5  1  0.025892  0.000000  0.000000  1
