# generated using pymatgen
data_Er(SiPd)2
_symmetry_space_group_name_H-M   'P 1'
_cell_length_a   4.14126780
_cell_length_b   4.14126779
_cell_length_c   5.77570305
_cell_angle_alpha   111.00857579
_cell_angle_beta   111.00857579
_cell_angle_gamma   90.00000000
_symmetry_Int_Tables_number   1
_chemical_formula_structural   Er(SiPd)2
_chemical_formula_sum   'Er1 Si2 Pd2'
_cell_volume   85.37872573
_cell_formula_units_Z   1
loop_
 _symmetry_equiv_pos_site_id
 _symmetry_equiv_pos_as_xyz
  1  'x, y, z'
loop_
 _atom_site_type_symbol
 _atom_site_label
 _atom_site_symmetry_multiplicity
 _atom_site_fract_x
 _atom_site_fract_y
 _atom_site_fract_z
 _atom_site_occupancy
  Si  Si0  1  0.615925  0.615925  0.231849  1
  Si  Si1  1  0.384075  0.384075  0.768151  1
  Pd  Pd2  1  0.750000  0.250000  0.500000  1
  Pd  Pd3  1  0.250000  0.750000  0.500000  1
  Er  Er4  1  0.000000  0.000000  0.000000  1
