# generated using pymatgen
data_CaCN2
_symmetry_space_group_name_H-M   'P 1'
_cell_length_a   5.40360564
_cell_length_b   5.40360564
_cell_length_c   5.40360563
_cell_angle_alpha   40.28185325
_cell_angle_beta   40.28185319
_cell_angle_gamma   40.28185321
_symmetry_Int_Tables_number   1
_chemical_formula_structural   CaCN2
_chemical_formula_sum   'Ca1 C1 N2'
_cell_volume   59.46022446
_cell_formula_units_Z   1
loop_
 _symmetry_equiv_pos_site_id
 _symmetry_equiv_pos_as_xyz
  1  'x, y, z'
loop_
 _atom_site_type_symbol
 _atom_site_label
 _atom_site_symmetry_multiplicity
 _atom_site_fract_x
 _atom_site_fract_y
 _atom_site_fract_z
 _atom_site_occupancy
  C  C0  1  0.500000  0.500000  0.500000  1
  N  N1  1  0.416852  0.416852  0.416852  1
  N  N2  1  0.583148  0.583148  0.583148  1
  Ca  Ca3  1  0.000000  0.000000  0.000000  1
