# generated using pymatgen
data_Zn(CrSe2)2
_symmetry_space_group_name_H-M   'P 1'
_cell_length_a   7.50295461
_cell_length_b   7.50295430
_cell_length_c   7.50295500
_cell_angle_alpha   60.00000131
_cell_angle_beta   60.00000268
_cell_angle_gamma   60.00000042
_symmetry_Int_Tables_number   1
_chemical_formula_structural   Zn(CrSe2)2
_chemical_formula_sum   'Zn2 Cr4 Se8'
_cell_volume   298.66338191
_cell_formula_units_Z   2
loop_
 _symmetry_equiv_pos_site_id
 _symmetry_equiv_pos_as_xyz
  1  'x, y, z'
loop_
 _atom_site_type_symbol
 _atom_site_label
 _atom_site_symmetry_multiplicity
 _atom_site_fract_x
 _atom_site_fract_y
 _atom_site_fract_z
 _atom_site_occupancy
  Zn  Zn0  1  0.125000  0.125000  0.125000  1
  Zn  Zn1  1  0.875000  0.875000  0.875000  1
  Cr  Cr2  1  0.500000  0.000000  0.500000  1
  Cr  Cr3  1  0.000000  0.500000  0.500000  1
  Cr  Cr4  1  0.500000  0.500000  0.500000  1
  Cr  Cr5  1  0.500000  0.500000  0.000000  1
  Se  Se6  1  0.260502  0.260502  0.260502  1
  Se  Se7  1  0.739498  0.739498  0.281506  1
  Se  Se8  1  0.281506  0.739498  0.739498  1
  Se  Se9  1  0.739498  0.281506  0.739498  1
  Se  Se10  1  0.718494  0.260502  0.260502  1
  Se  Se11  1  0.260502  0.718494  0.260502  1
  Se  Se12  1  0.260502  0.260502  0.718494  1
  Se  Se13  1  0.739498  0.739498  0.739498  1
