# generated using pymatgen
data_Yb2Si2O7
_symmetry_space_group_name_H-M   'P 1'
_cell_length_a   4.90958037
_cell_length_b   5.77454037
_cell_length_c   5.77454037
_cell_angle_alpha   107.03423421
_cell_angle_beta   97.21144938
_cell_angle_gamma   97.21144933
_symmetry_Int_Tables_number   1
_chemical_formula_structural   Yb2Si2O7
_chemical_formula_sum   'Yb2 Si2 O7'
_cell_volume   153.00113693
_cell_formula_units_Z   1
loop_
 _symmetry_equiv_pos_site_id
 _symmetry_equiv_pos_as_xyz
  1  'x, y, z'
loop_
 _atom_site_type_symbol
 _atom_site_label
 _atom_site_symmetry_multiplicity
 _atom_site_fract_x
 _atom_site_fract_y
 _atom_site_fract_z
 _atom_site_occupancy
  O  O0  1  0.785680  0.912820  0.625723  1
  O  O1  1  0.214320  0.374277  0.087180  1
  O  O2  1  0.214320  0.087180  0.374277  1
  O  O3  1  0.785680  0.625723  0.912820  1
  O  O4  1  0.500000  0.000000  0.000000  1
  O  O5  1  0.300676  0.625401  0.625401  1
  O  O6  1  0.699324  0.374599  0.374599  1
  Si  Si7  1  0.399416  0.215368  0.215368  1
  Si  Si8  1  0.600584  0.784632  0.784632  1
  Yb  Yb9  1  0.000000  0.309721  0.690279  1
  Yb  Yb10  1  0.000000  0.690279  0.309721  1
