# generated using pymatgen
data_Tm2CdS4
_symmetry_space_group_name_H-M   'P 1'
_cell_length_a   7.90948578
_cell_length_b   7.90948578
_cell_length_c   7.90948579
_cell_angle_alpha   60.00000001
_cell_angle_beta   60.00000001
_cell_angle_gamma   60.00000003
_symmetry_Int_Tables_number   1
_chemical_formula_structural   Tm2CdS4
_chemical_formula_sum   'Tm4 Cd2 S8'
_cell_volume   349.88856726
_cell_formula_units_Z   2
loop_
 _symmetry_equiv_pos_site_id
 _symmetry_equiv_pos_as_xyz
  1  'x, y, z'
loop_
 _atom_site_type_symbol
 _atom_site_label
 _atom_site_symmetry_multiplicity
 _atom_site_fract_x
 _atom_site_fract_y
 _atom_site_fract_z
 _atom_site_occupancy
  S  S0  1  0.741728  0.741728  0.741728  1
  S  S1  1  0.258272  0.258272  0.725183  1
  S  S2  1  0.258272  0.725183  0.258272  1
  S  S3  1  0.725183  0.258272  0.258272  1
  S  S4  1  0.741728  0.274817  0.741728  1
  S  S5  1  0.274817  0.741728  0.741728  1
  S  S6  1  0.258272  0.258272  0.258272  1
  S  S7  1  0.741728  0.741728  0.274817  1
  Cd  Cd8  1  0.125000  0.125000  0.125000  1
  Cd  Cd9  1  0.875000  0.875000  0.875000  1
  Tm  Tm10  1  0.500000  0.500000  0.000000  1
  Tm  Tm11  1  0.500000  0.500000  0.500000  1
  Tm  Tm12  1  0.000000  0.500000  0.500000  1
  Tm  Tm13  1  0.500000  0.000000  0.500000  1
