# generated using pymatgen
data_TbCoSi2
_symmetry_space_group_name_H-M   'P 1'
_cell_length_a   4.00230020
_cell_length_b   4.04234193
_cell_length_c   8.35235428
_cell_angle_alpha   104.00391379
_cell_angle_beta   90.00000000
_cell_angle_gamma   90.00000000
_symmetry_Int_Tables_number   1
_chemical_formula_structural   TbCoSi2
_chemical_formula_sum   'Tb2 Co2 Si4'
_cell_volume   131.11377905
_cell_formula_units_Z   2
loop_
 _symmetry_equiv_pos_site_id
 _symmetry_equiv_pos_as_xyz
  1  'x, y, z'
loop_
 _atom_site_type_symbol
 _atom_site_label
 _atom_site_symmetry_multiplicity
 _atom_site_fract_x
 _atom_site_fract_y
 _atom_site_fract_z
 _atom_site_occupancy
  Si  Si0  1  0.250000  0.249891  0.499782  1
  Si  Si1  1  0.750000  0.750109  0.500218  1
  Si  Si2  1  0.750000  0.457341  0.914683  1
  Si  Si3  1  0.250000  0.542659  0.085317  1
  Co  Co4  1  0.750000  0.320113  0.640227  1
  Co  Co5  1  0.250000  0.679886  0.359773  1
  Tb  Tb6  1  0.250000  0.892990  0.785981  1
  Tb  Tb7  1  0.750000  0.107010  0.214019  1
