# generated using pymatgen
data_Eu(SiNi)2
_symmetry_space_group_name_H-M   'P 1'
_cell_length_a   4.03280782
_cell_length_b   4.03280782
_cell_length_c   5.64112232
_cell_angle_alpha   110.94350813
_cell_angle_beta   110.94350816
_cell_angle_gamma   90.00000002
_symmetry_Int_Tables_number   1
_chemical_formula_structural   Eu(SiNi)2
_chemical_formula_sum   'Eu1 Si2 Ni2'
_cell_volume   79.15932639
_cell_formula_units_Z   1
loop_
 _symmetry_equiv_pos_site_id
 _symmetry_equiv_pos_as_xyz
  1  'x, y, z'
loop_
 _atom_site_type_symbol
 _atom_site_label
 _atom_site_symmetry_multiplicity
 _atom_site_fract_x
 _atom_site_fract_y
 _atom_site_fract_z
 _atom_site_occupancy
  Si  Si0  1  0.631439  0.631439  0.262878  1
  Si  Si1  1  0.368561  0.368561  0.737122  1
  Ni  Ni2  1  0.750000  0.250000  0.500000  1
  Ni  Ni3  1  0.250000  0.750000  0.500000  1
  Eu  Eu4  1  0.000000  0.000000  0.000000  1
