# generated using pymatgen
data_Pr(SiRu)2
_symmetry_space_group_name_H-M   'P 1'
_cell_length_a   4.23017219
_cell_length_b   4.23017219
_cell_length_c   5.78275396
_cell_angle_alpha   111.45421285
_cell_angle_beta   111.45421289
_cell_angle_gamma   90.00000007
_symmetry_Int_Tables_number   1
_chemical_formula_structural   Pr(SiRu)2
_chemical_formula_sum   'Pr1 Si2 Ru2'
_cell_volume   88.56001043
_cell_formula_units_Z   1
loop_
 _symmetry_equiv_pos_site_id
 _symmetry_equiv_pos_as_xyz
  1  'x, y, z'
loop_
 _atom_site_type_symbol
 _atom_site_label
 _atom_site_symmetry_multiplicity
 _atom_site_fract_x
 _atom_site_fract_y
 _atom_site_fract_z
 _atom_site_occupancy
  Si  Si0  1  0.636829  0.636829  0.273657  1
  Si  Si1  1  0.363171  0.363171  0.726343  1
  Ru  Ru2  1  0.750000  0.250000  0.500000  1
  Ru  Ru3  1  0.250000  0.750000  0.500000  1
  Pr  Pr4  1  0.000000  0.000000  0.000000  1
