# generated using pymatgen
data_TlSbTe2
_symmetry_space_group_name_H-M   'P 1'
_cell_length_a   8.36041459
_cell_length_b   8.36041459
_cell_length_c   8.36041458
_cell_angle_alpha   31.20668187
_cell_angle_beta   31.20668188
_cell_angle_gamma   31.20668186
_symmetry_Int_Tables_number   1
_chemical_formula_structural   TlSbTe2
_chemical_formula_sum   'Tl1 Sb1 Te2'
_cell_volume   139.21107159
_cell_formula_units_Z   1
loop_
 _symmetry_equiv_pos_site_id
 _symmetry_equiv_pos_as_xyz
  1  'x, y, z'
loop_
 _atom_site_type_symbol
 _atom_site_label
 _atom_site_symmetry_multiplicity
 _atom_site_fract_x
 _atom_site_fract_y
 _atom_site_fract_z
 _atom_site_occupancy
  Sb  Sb0  1  0.500000  0.500000  0.500000  1
  Te  Te1  1  0.238853  0.238853  0.238853  1
  Te  Te2  1  0.761147  0.761147  0.761147  1
  Tl  Tl3  1  0.000000  0.000000  0.000000  1
