# generated using pymatgen
data_CaCO3
_symmetry_space_group_name_H-M   'P 1'
_cell_length_a   3.80184962
_cell_length_b   5.41600925
_cell_length_c   5.41601556
_cell_angle_alpha   109.49350027
_cell_angle_beta   89.99953310
_cell_angle_gamma   90.00041262
_symmetry_Int_Tables_number   1
_chemical_formula_structural   CaCO3
_chemical_formula_sum   'Ca2 C2 O6'
_cell_volume   105.12795833
_cell_formula_units_Z   2
loop_
 _symmetry_equiv_pos_site_id
 _symmetry_equiv_pos_as_xyz
  1  'x, y, z'
loop_
 _atom_site_type_symbol
 _atom_site_label
 _atom_site_symmetry_multiplicity
 _atom_site_fract_x
 _atom_site_fract_y
 _atom_site_fract_z
 _atom_site_occupancy
  O  O0  1  0.749998  0.417004  0.582999  1
  Ca  Ca1  1  0.750009  0.804534  0.195457  1
  C  C2  1  1.000004  0.359185  0.359191  1
  C  C3  1  0.500000  0.640814  0.640815  1
  O  O4  1  0.250001  0.583000  0.417003  1
  O  O5  1  0.659921  0.865848  0.647395  1
  Ca  Ca6  1  0.249993  0.195455  0.804533  1
  O  O7  1  0.340079  0.647395  0.865850  1
  O  O8  1  0.159915  0.134157  0.352606  1
  O  O9  1  0.840080  0.352608  0.134152  1
