# generated using pymatgen
data_SnCl2
_symmetry_space_group_name_H-M   'P 1'
_cell_length_a   4.38104331
_cell_length_b   8.05029127
_cell_length_c   9.68415652
_cell_angle_alpha   90.00000000
_cell_angle_beta   90.00000000
_cell_angle_gamma   90.00000000
_symmetry_Int_Tables_number   1
_chemical_formula_structural   SnCl2
_chemical_formula_sum   'Sn4 Cl8'
_cell_volume   341.54736616
_cell_formula_units_Z   4
loop_
 _symmetry_equiv_pos_site_id
 _symmetry_equiv_pos_as_xyz
  1  'x, y, z'
loop_
 _atom_site_type_symbol
 _atom_site_label
 _atom_site_symmetry_multiplicity
 _atom_site_fract_x
 _atom_site_fract_y
 _atom_site_fract_z
 _atom_site_occupancy
  Sn  Sn0  1  0.250000  0.774246  0.065643  1
  Sn  Sn1  1  0.250000  0.274246  0.434357  1
  Sn  Sn2  1  0.750000  0.225754  0.934357  1
  Sn  Sn3  1  0.750000  0.725754  0.565643  1
  Cl  Cl4  1  0.750000  0.645840  0.924367  1
  Cl  Cl5  1  0.250000  0.354160  0.075633  1
  Cl  Cl6  1  0.750000  0.145840  0.575633  1
  Cl  Cl7  1  0.750000  0.018490  0.146791  1
  Cl  Cl8  1  0.250000  0.981510  0.853209  1
  Cl  Cl9  1  0.750000  0.518490  0.353209  1
  Cl  Cl10  1  0.250000  0.481510  0.646791  1
  Cl  Cl11  1  0.250000  0.854160  0.424367  1
