# generated using pymatgen
data_AgClO4
_symmetry_space_group_name_H-M   'P 1'
_cell_length_a   5.19289514
_cell_length_b   5.19289489
_cell_length_c   5.19289540
_cell_angle_alpha   59.99999675
_cell_angle_beta   59.99999837
_cell_angle_gamma   59.99999730
_symmetry_Int_Tables_number   1
_chemical_formula_structural   AgClO4
_chemical_formula_sum   'Ag1 Cl1 O4'
_cell_volume   99.01788313
_cell_formula_units_Z   1
loop_
 _symmetry_equiv_pos_site_id
 _symmetry_equiv_pos_as_xyz
  1  'x, y, z'
loop_
 _atom_site_type_symbol
 _atom_site_label
 _atom_site_symmetry_multiplicity
 _atom_site_fract_x
 _atom_site_fract_y
 _atom_site_fract_z
 _atom_site_occupancy
  O  O0  1  0.115272  0.654185  0.115272  1
  O  O1  1  0.115272  0.115272  0.115272  1
  O  O2  1  0.654185  0.115272  0.115272  1
  O  O3  1  0.115272  0.115272  0.654185  1
  Ag  Ag4  1  0.500000  0.500000  0.500000  1
  Cl  Cl5  1  0.000000  0.000000  0.000000  1
