# generated using pymatgen
data_CsI4
_symmetry_space_group_name_H-M   'P 1'
_cell_length_a   9.06494555
_cell_length_b   10.65280123
_cell_length_c   11.72260653
_cell_angle_alpha   112.81830718
_cell_angle_beta   90.00000000
_cell_angle_gamma   90.00000000
_symmetry_Int_Tables_number   1
_chemical_formula_structural   CsI4
_chemical_formula_sum   'Cs4 I16'
_cell_volume   1043.42517194
_cell_formula_units_Z   4
loop_
 _symmetry_equiv_pos_site_id
 _symmetry_equiv_pos_as_xyz
  1  'x, y, z'
loop_
 _atom_site_type_symbol
 _atom_site_label
 _atom_site_symmetry_multiplicity
 _atom_site_fract_x
 _atom_site_fract_y
 _atom_site_fract_z
 _atom_site_occupancy
  Cs  Cs0  1  0.875765  0.273900  0.195399  1
  Cs  Cs1  1  0.375765  0.726100  0.304601  1
  Cs  Cs2  1  0.624235  0.273900  0.695399  1
  Cs  Cs3  1  0.124235  0.726100  0.804601  1
  I  I4  1  0.972229  0.670208  0.450854  1
  I  I5  1  0.356341  0.452343  0.510825  1
  I  I6  1  0.206217  0.123122  0.609507  1
  I  I7  1  0.472229  0.329792  0.049146  1
  I  I8  1  0.896196  0.058620  0.828139  1
  I  I9  1  0.103804  0.941380  0.171861  1
  I  I10  1  0.027771  0.329792  0.549146  1
  I  I11  1  0.293783  0.123122  0.109507  1
  I  I12  1  0.396196  0.941380  0.671861  1
  I  I13  1  0.856341  0.547657  0.989175  1
  I  I14  1  0.527771  0.670208  0.950854  1
  I  I15  1  0.643659  0.547657  0.489175  1
  I  I16  1  0.143659  0.452343  0.010825  1
  I  I17  1  0.706217  0.876878  0.890493  1
  I  I18  1  0.793783  0.876878  0.390493  1
  I  I19  1  0.603804  0.058620  0.328139  1
