# generated using pymatgen
data_ErBi2ClO4
_symmetry_space_group_name_H-M   'P 1'
_cell_length_a   3.87992213
_cell_length_b   3.87990192
_cell_length_c   8.99993161
_cell_angle_alpha   90.00000000
_cell_angle_beta   90.00000000
_cell_angle_gamma   90.00000000
_symmetry_Int_Tables_number   1
_chemical_formula_structural   ErBi2ClO4
_chemical_formula_sum   'Er1 Bi2 Cl1 O4'
_cell_volume   135.48242637
_cell_formula_units_Z   1
loop_
 _symmetry_equiv_pos_site_id
 _symmetry_equiv_pos_as_xyz
  1  'x, y, z'
loop_
 _atom_site_type_symbol
 _atom_site_label
 _atom_site_symmetry_multiplicity
 _atom_site_fract_x
 _atom_site_fract_y
 _atom_site_fract_z
 _atom_site_occupancy
  O  O0  1  0.500000  0.000000  0.847950  1
  O  O1  1  0.000000  0.500000  0.847946  1
  O  O2  1  0.500000  0.000000  0.152065  1
  Er  Er3  1  0.000000  0.000000  -0.000029  1
  Bi  Bi4  1  0.500000  0.500000  0.278044  1
  O  O5  1  0.000000  0.500000  0.152069  1
  Bi  Bi6  1  0.500000  0.500000  0.721950  1
  Cl  Cl7  1  0.000000  0.000000  0.500005  1
