# generated using pymatgen
data_Tb(SiOs)2
_symmetry_space_group_name_H-M   'P 1'
_cell_length_a   4.18063415
_cell_length_b   4.18063415
_cell_length_c   5.68107783
_cell_angle_alpha   111.58885872
_cell_angle_beta   111.58885870
_cell_angle_gamma   90.00000000
_symmetry_Int_Tables_number   1
_chemical_formula_structural   Tb(SiOs)2
_chemical_formula_sum   'Tb1 Si2 Os2'
_cell_volume   84.79080492
_cell_formula_units_Z   1
loop_
 _symmetry_equiv_pos_site_id
 _symmetry_equiv_pos_as_xyz
  1  'x, y, z'
loop_
 _atom_site_type_symbol
 _atom_site_label
 _atom_site_symmetry_multiplicity
 _atom_site_fract_x
 _atom_site_fract_y
 _atom_site_fract_z
 _atom_site_occupancy
  Si  Si0  1  0.628422  0.628422  0.256843  1
  Si  Si1  1  0.371578  0.371578  0.743157  1
  Tb  Tb2  1  0.000000  0.000000  0.000000  1
  Os  Os3  1  0.250000  0.750000  0.500000  1
  Os  Os4  1  0.750000  0.250000  0.500000  1
