# generated using pymatgen
data_CdI2
_symmetry_space_group_name_H-M   'P 1'
_cell_length_a   4.33080244
_cell_length_b   4.33080271
_cell_length_c   22.20993038
_cell_angle_alpha   90.00000000
_cell_angle_beta   90.00000000
_cell_angle_gamma   119.99999796
_symmetry_Int_Tables_number   1
_chemical_formula_structural   CdI2
_chemical_formula_sum   'Cd3 I6'
_cell_volume   360.75686993
_cell_formula_units_Z   3
loop_
 _symmetry_equiv_pos_site_id
 _symmetry_equiv_pos_as_xyz
  1  'x, y, z'
loop_
 _atom_site_type_symbol
 _atom_site_label
 _atom_site_symmetry_multiplicity
 _atom_site_fract_x
 _atom_site_fract_y
 _atom_site_fract_z
 _atom_site_occupancy
  Cd  Cd0  1  0.666667  0.333333  0.083349  1
  Cd  Cd1  1  0.000000  0.000000  0.416677  1
  Cd  Cd2  1  0.000000  0.000000  0.749966  1
  I  I3  1  0.666667  0.333333  0.672131  1
  I  I4  1  0.333333  0.666667  0.827798  1
  I  I5  1  0.333333  0.666667  0.161156  1
  I  I6  1  0.666667  0.333333  0.338852  1
  I  I7  1  0.000000  0.000000  0.005568  1
  I  I8  1  0.333333  0.666667  0.494502  1
