# generated using pymatgen
data_LaRhO3
_symmetry_space_group_name_H-M   'P 1'
_cell_length_a   5.52133011
_cell_length_b   5.87862659
_cell_length_c   7.94544403
_cell_angle_alpha   90.00000000
_cell_angle_beta   90.00000000
_cell_angle_gamma   90.00000000
_symmetry_Int_Tables_number   1
_chemical_formula_structural   LaRhO3
_chemical_formula_sum   'La4 Rh4 O12'
_cell_volume   257.89193514
_cell_formula_units_Z   4
loop_
 _symmetry_equiv_pos_site_id
 _symmetry_equiv_pos_as_xyz
  1  'x, y, z'
loop_
 _atom_site_type_symbol
 _atom_site_label
 _atom_site_symmetry_multiplicity
 _atom_site_fract_x
 _atom_site_fract_y
 _atom_site_fract_z
 _atom_site_occupancy
  O  O0  1  0.810649  0.197821  0.447202  1
  O  O1  1  0.310649  0.302179  0.552798  1
  O  O2  1  0.689351  0.697821  0.052798  1
  O  O3  1  0.189351  0.802179  0.947202  1
  O  O4  1  0.189351  0.802179  0.552798  1
  O  O5  1  0.689351  0.697821  0.447202  1
  O  O6  1  0.310649  0.302179  0.947202  1
  O  O7  1  0.810649  0.197821  0.052798  1
  O  O8  1  0.394181  0.031167  0.250000  1
  O  O9  1  0.894181  0.468833  0.750000  1
  O  O10  1  0.105819  0.531167  0.250000  1
  O  O11  1  0.605819  0.968833  0.750000  1
  Rh  Rh12  1  0.500000  0.000000  0.500000  1
  Rh  Rh13  1  0.000000  0.500000  0.500000  1
  Rh  Rh14  1  0.000000  0.500000  0.000000  1
  Rh  Rh15  1  0.500000  0.000000  0.000000  1
  La  La16  1  0.479827  0.570067  0.750000  1
  La  La17  1  0.979827  0.929933  0.250000  1
  La  La18  1  0.020173  0.070067  0.750000  1
  La  La19  1  0.520173  0.429933  0.250000  1
