# generated using pymatgen
data_ScF3
_symmetry_space_group_name_H-M   'P 1'
_cell_length_a   4.07714508
_cell_length_b   4.07714435
_cell_length_c   4.07714472
_cell_angle_alpha   89.82567206
_cell_angle_beta   89.82567218
_cell_angle_gamma   89.82566212
_symmetry_Int_Tables_number   1
_chemical_formula_structural   ScF3
_chemical_formula_sum   'Sc1 F3'
_cell_volume   67.77388194
_cell_formula_units_Z   1
loop_
 _symmetry_equiv_pos_site_id
 _symmetry_equiv_pos_as_xyz
  1  'x, y, z'
loop_
 _atom_site_type_symbol
 _atom_site_label
 _atom_site_symmetry_multiplicity
 _atom_site_fract_x
 _atom_site_fract_y
 _atom_site_fract_z
 _atom_site_occupancy
  Sc  Sc0  1  0.000000  0.000000  0.000000  1
  F  F1  1  0.500000  0.011523  0.988477  1
  F  F2  1  0.011523  0.988477  0.500000  1
  F  F3  1  0.988477  0.500000  0.011523  1
