# generated using pymatgen
data_Ho(SiRu)2
_symmetry_space_group_name_H-M   'P 1'
_cell_length_a   4.18306537
_cell_length_b   4.18306536
_cell_length_c   5.61183716
_cell_angle_alpha   111.88224074
_cell_angle_beta   111.88224073
_cell_angle_gamma   89.99999993
_symmetry_Int_Tables_number   1
_chemical_formula_structural   Ho(SiRu)2
_chemical_formula_sum   'Ho1 Si2 Ru2'
_cell_volume   83.44875183
_cell_formula_units_Z   1
loop_
 _symmetry_equiv_pos_site_id
 _symmetry_equiv_pos_as_xyz
  1  'x, y, z'
loop_
 _atom_site_type_symbol
 _atom_site_label
 _atom_site_symmetry_multiplicity
 _atom_site_fract_x
 _atom_site_fract_y
 _atom_site_fract_z
 _atom_site_occupancy
  Si  Si0  1  0.631180  0.631180  0.262361  1
  Si  Si1  1  0.368820  0.368820  0.737639  1
  Ru  Ru2  1  0.750000  0.250000  0.500000  1
  Ru  Ru3  1  0.250000  0.750000  0.500000  1
  Ho  Ho4  1  0.000000  0.000000  0.000000  1
