# generated using pymatgen
data_TiF3
_symmetry_space_group_name_H-M   'P 1'
_cell_length_a   5.56090266
_cell_length_b   5.56090351
_cell_length_c   5.56090368
_cell_angle_alpha   57.31232581
_cell_angle_beta   57.31231850
_cell_angle_gamma   57.31232120
_symmetry_Int_Tables_number   1
_chemical_formula_structural   TiF3
_chemical_formula_sum   'Ti2 F6'
_cell_volume   114.07274442
_cell_formula_units_Z   2
loop_
 _symmetry_equiv_pos_site_id
 _symmetry_equiv_pos_as_xyz
  1  'x, y, z'
loop_
 _atom_site_type_symbol
 _atom_site_label
 _atom_site_symmetry_multiplicity
 _atom_site_fract_x
 _atom_site_fract_y
 _atom_site_fract_z
 _atom_site_occupancy
  Ti  Ti0  1  0.000000  0.000000  0.000000  1
  Ti  Ti1  1  0.500000  0.500000  0.500000  1
  F  F2  1  0.166972  0.333028  0.750000  1
  F  F3  1  0.250000  0.833028  0.666972  1
  F  F4  1  0.833028  0.666972  0.250000  1
  F  F5  1  0.666972  0.250000  0.833028  1
  F  F6  1  0.750000  0.166972  0.333028  1
  F  F7  1  0.333028  0.750000  0.166972  1
