# generated using pymatgen
data_ZrCl3
_symmetry_space_group_name_H-M   'P 1'
_cell_length_a   6.25729432
_cell_length_b   6.25729390
_cell_length_c   6.66124098
_cell_angle_alpha   90.00000000
_cell_angle_beta   90.00000000
_cell_angle_gamma   120.00000224
_symmetry_Int_Tables_number   1
_chemical_formula_structural   ZrCl3
_chemical_formula_sum   'Zr2 Cl6'
_cell_volume   225.87018300
_cell_formula_units_Z   2
loop_
 _symmetry_equiv_pos_site_id
 _symmetry_equiv_pos_as_xyz
  1  'x, y, z'
loop_
 _atom_site_type_symbol
 _atom_site_label
 _atom_site_symmetry_multiplicity
 _atom_site_fract_x
 _atom_site_fract_y
 _atom_site_fract_z
 _atom_site_occupancy
  Zr  Zr0  1  0.666667  0.333333  0.000000  1
  Zr  Zr1  1  0.333333  0.666667  0.000000  1
  Cl  Cl2  1  0.661550  0.661550  0.227807  1
  Cl  Cl3  1  0.338450  0.338450  0.772193  1
  Cl  Cl4  1  1.000000  0.338450  0.227807  1
  Cl  Cl5  1  0.338450  0.000000  0.227807  1
  Cl  Cl6  1  0.661550  0.000000  0.772193  1
  Cl  Cl7  1  0.000000  0.661550  0.772193  1
