# generated using pymatgen
data_NbAgO3
_symmetry_space_group_name_H-M   'P 1'
_cell_length_a   6.84487187
_cell_length_b   6.84487220
_cell_length_c   6.22825175
_cell_angle_alpha   90.00000000
_cell_angle_beta   90.00000000
_cell_angle_gamma   110.26775311
_symmetry_Int_Tables_number   1
_chemical_formula_structural   NbAgO3
_chemical_formula_sum   'Nb4 Ag4 O12'
_cell_volume   273.74019715
_cell_formula_units_Z   4
loop_
 _symmetry_equiv_pos_site_id
 _symmetry_equiv_pos_as_xyz
  1  'x, y, z'
loop_
 _atom_site_type_symbol
 _atom_site_label
 _atom_site_symmetry_multiplicity
 _atom_site_fract_x
 _atom_site_fract_y
 _atom_site_fract_z
 _atom_site_occupancy
  Nb  Nb0  1  0.500000  0.000000  0.500000  1
  Nb  Nb1  1  0.500000  0.000000  0.000000  1
  Nb  Nb2  1  0.000000  0.500000  0.500000  1
  Nb  Nb3  1  0.000000  0.500000  0.000000  1
  Ag  Ag4  1  0.498429  0.501571  0.750000  1
  Ag  Ag5  1  0.998561  0.001439  0.250000  1
  Ag  Ag6  1  0.501571  0.498429  0.250000  1
  Ag  Ag7  1  0.001439  0.998561  0.750000  1
  O  O8  1  0.736555  0.263445  0.496958  1
  O  O9  1  0.630759  0.892998  0.750000  1
  O  O10  1  0.263445  0.736555  0.503042  1
  O  O11  1  0.736555  0.263445  0.003042  1
  O  O12  1  0.892998  0.630759  0.250000  1
  O  O13  1  0.110764  0.372358  0.250000  1
  O  O14  1  0.627642  0.889236  0.250000  1
  O  O15  1  0.263445  0.736555  0.996958  1
  O  O16  1  0.889236  0.627642  0.750000  1
  O  O17  1  0.369241  0.107002  0.250000  1
  O  O18  1  0.372358  0.110764  0.750000  1
  O  O19  1  0.107002  0.369241  0.750000  1
