# generated using pymatgen
data_Cs2MnF5
_symmetry_space_group_name_H-M   'P 1'
_cell_length_a   4.31567633
_cell_length_b   6.51548651
_cell_length_c   6.51548651
_cell_angle_alpha   90.00000000
_cell_angle_beta   90.00000000
_cell_angle_gamma   90.00000000
_symmetry_Int_Tables_number   1
_chemical_formula_structural   Cs2MnF5
_chemical_formula_sum   'Cs2 Mn1 F5'
_cell_volume   183.20721192
_cell_formula_units_Z   1
loop_
 _symmetry_equiv_pos_site_id
 _symmetry_equiv_pos_as_xyz
  1  'x, y, z'
loop_
 _atom_site_type_symbol
 _atom_site_label
 _atom_site_symmetry_multiplicity
 _atom_site_fract_x
 _atom_site_fract_y
 _atom_site_fract_z
 _atom_site_occupancy
  F  F0  1  0.000000  0.793366  0.793366  1
  F  F1  1  0.000000  0.206634  0.793366  1
  F  F2  1  0.000000  0.793366  0.206634  1
  F  F3  1  0.500000  0.000000  0.000000  1
  F  F4  1  0.000000  0.206634  0.206634  1
  Mn  Mn5  1  0.000000  0.000000  0.000000  1
  Cs  Cs6  1  0.500000  0.000000  0.500000  1
  Cs  Cs7  1  0.500000  0.500000  0.000000  1
