# generated using pymatgen
data_Sc
_symmetry_space_group_name_H-M   'P 1'
_cell_length_a   5.41114543
_cell_length_b   5.13490248
_cell_length_c   5.13490227
_cell_angle_alpha   73.88166868
_cell_angle_beta   58.20386605
_cell_angle_gamma   58.20385858
_symmetry_Int_Tables_number   1
_chemical_formula_structural   Sc
_chemical_formula_sum   Sc4
_cell_volume   103.06663101
_cell_formula_units_Z   4
loop_
 _symmetry_equiv_pos_site_id
 _symmetry_equiv_pos_as_xyz
  1  'x, y, z'
loop_
 _atom_site_type_symbol
 _atom_site_label
 _atom_site_symmetry_multiplicity
 _atom_site_fract_x
 _atom_site_fract_y
 _atom_site_fract_z
 _atom_site_occupancy
  Sc  Sc0  1  0.335976  0.828048  0.500000  1
  Sc  Sc1  1  0.164024  0.500000  0.171952  1
  Sc  Sc2  1  0.835976  0.500000  0.828048  1
  Sc  Sc3  1  0.664024  0.171952  0.500000  1
