# generated using pymatgen
data_VS2
_symmetry_space_group_name_H-M   'P 1'
_cell_length_a   3.18994919
_cell_length_b   3.18994911
_cell_length_c   22.79436924
_cell_angle_alpha   89.99890622
_cell_angle_beta   90.00109377
_cell_angle_gamma   119.98699257
_symmetry_Int_Tables_number   1
_chemical_formula_structural   VS2
_chemical_formula_sum   'V2 S4'
_cell_volume   200.90125015
_cell_formula_units_Z   2
loop_
 _symmetry_equiv_pos_site_id
 _symmetry_equiv_pos_as_xyz
  1  'x, y, z'
loop_
 _atom_site_type_symbol
 _atom_site_label
 _atom_site_symmetry_multiplicity
 _atom_site_fract_x
 _atom_site_fract_y
 _atom_site_fract_z
 _atom_site_occupancy
  V  V0  1  0.000000  0.000000  0.000000  1
  V  V1  1  0.000000  0.000000  0.500000  1
  S  S2  1  0.333515  0.666485  0.564431  1
  S  S3  1  0.666485  0.333515  0.435569  1
  S  S4  1  0.333513  0.666487  0.935560  1
  S  S5  1  0.666487  0.333513  0.064440  1
