# generated using pymatgen
data_Tb(FeSi)2
_symmetry_space_group_name_H-M   'P 1'
_cell_length_a   3.97263183
_cell_length_b   3.97263183
_cell_length_c   5.53612650
_cell_angle_alpha   111.02600516
_cell_angle_beta   111.02600518
_cell_angle_gamma   89.99999999
_symmetry_Int_Tables_number   1
_chemical_formula_structural   Tb(FeSi)2
_chemical_formula_sum   'Tb1 Fe2 Si2'
_cell_volume   75.28730026
_cell_formula_units_Z   1
loop_
 _symmetry_equiv_pos_site_id
 _symmetry_equiv_pos_as_xyz
  1  'x, y, z'
loop_
 _atom_site_type_symbol
 _atom_site_label
 _atom_site_symmetry_multiplicity
 _atom_site_fract_x
 _atom_site_fract_y
 _atom_site_fract_z
 _atom_site_occupancy
  Si  Si0  1  0.635146  0.635146  0.270291  1
  Si  Si1  1  0.364854  0.364854  0.729709  1
  Fe  Fe2  1  0.250000  0.750000  0.500000  1
  Fe  Fe3  1  0.750000  0.250000  0.500000  1
  Tb  Tb4  1  0.000000  0.000000  0.000000  1
