# generated using pymatgen
data_Li2Ca
_symmetry_space_group_name_H-M   'P 1'
_cell_length_a   6.15238960
_cell_length_b   6.15238943
_cell_length_c   10.07758537
_cell_angle_alpha   90.00000000
_cell_angle_beta   90.00000000
_cell_angle_gamma   120.00000092
_symmetry_Int_Tables_number   1
_chemical_formula_structural   Li2Ca
_chemical_formula_sum   'Li8 Ca4'
_cell_volume   330.35034156
_cell_formula_units_Z   4
loop_
 _symmetry_equiv_pos_site_id
 _symmetry_equiv_pos_as_xyz
  1  'x, y, z'
loop_
 _atom_site_type_symbol
 _atom_site_label
 _atom_site_symmetry_multiplicity
 _atom_site_fract_x
 _atom_site_fract_y
 _atom_site_fract_z
 _atom_site_occupancy
  Li  Li0  1  0.331101  0.165551  0.750000  1
  Li  Li1  1  0.165551  0.834449  0.250000  1
  Li  Li2  1  0.165551  0.331101  0.250000  1
  Li  Li3  1  0.834449  0.668899  0.750000  1
  Li  Li4  1  0.834449  0.165551  0.750000  1
  Li  Li5  1  0.000000  0.000000  0.000000  1
  Li  Li6  1  0.668899  0.834449  0.250000  1
  Li  Li7  1  0.000000  0.000000  0.500000  1
  Ca  Ca8  1  0.666667  0.333333  0.062832  1
  Ca  Ca9  1  0.333333  0.666667  0.562832  1
  Ca  Ca10  1  0.333333  0.666667  0.937168  1
  Ca  Ca11  1  0.666667  0.333333  0.437168  1
