# generated using pymatgen
data_TiCl3
_symmetry_space_group_name_H-M   'P 1'
_cell_length_a   6.13847643
_cell_length_b   6.13847645
_cell_length_c   6.35003848
_cell_angle_alpha   90.00000000
_cell_angle_beta   90.00000000
_cell_angle_gamma   119.99999986
_symmetry_Int_Tables_number   1
_chemical_formula_structural   TiCl3
_chemical_formula_sum   'Ti2 Cl6'
_cell_volume   207.21833303
_cell_formula_units_Z   2
loop_
 _symmetry_equiv_pos_site_id
 _symmetry_equiv_pos_as_xyz
  1  'x, y, z'
loop_
 _atom_site_type_symbol
 _atom_site_label
 _atom_site_symmetry_multiplicity
 _atom_site_fract_x
 _atom_site_fract_y
 _atom_site_fract_z
 _atom_site_occupancy
  Ti  Ti0  1  0.666667  0.333333  0.000000  1
  Ti  Ti1  1  0.333333  0.666667  0.000000  1
  Cl  Cl2  1  0.643040  0.643040  0.778071  1
  Cl  Cl3  1  0.356960  0.356960  0.221929  1
  Cl  Cl4  1  0.000000  0.356960  0.778071  1
  Cl  Cl5  1  0.356960  0.000000  0.778071  1
  Cl  Cl6  1  0.643040  0.000000  0.221929  1
  Cl  Cl7  1  1.000000  0.643040  0.221929  1
