# generated using pymatgen
data_YOs2
_symmetry_space_group_name_H-M   'P 1'
_cell_length_a   5.30481282
_cell_length_b   5.30481298
_cell_length_c   8.96083947
_cell_angle_alpha   90.00000000
_cell_angle_beta   90.00000000
_cell_angle_gamma   119.99999900
_symmetry_Int_Tables_number   1
_chemical_formula_structural   YOs2
_chemical_formula_sum   'Y4 Os8'
_cell_volume   218.38332563
_cell_formula_units_Z   4
loop_
 _symmetry_equiv_pos_site_id
 _symmetry_equiv_pos_as_xyz
  1  'x, y, z'
loop_
 _atom_site_type_symbol
 _atom_site_label
 _atom_site_symmetry_multiplicity
 _atom_site_fract_x
 _atom_site_fract_y
 _atom_site_fract_z
 _atom_site_occupancy
  Y  Y0  1  0.333333  0.666667  0.434527  1
  Y  Y1  1  0.666667  0.333333  0.565473  1
  Y  Y2  1  0.666667  0.333333  0.934527  1
  Y  Y3  1  0.333333  0.666667  0.065473  1
  Os  Os4  1  0.171077  0.342153  0.750000  1
  Os  Os5  1  0.171077  0.828923  0.750000  1
  Os  Os6  1  0.342153  0.171077  0.250000  1
  Os  Os7  1  0.828923  0.657847  0.250000  1
  Os  Os8  1  0.657847  0.828923  0.750000  1
  Os  Os9  1  0.000000  0.000000  0.000000  1
  Os  Os10  1  0.828923  0.171077  0.250000  1
  Os  Os11  1  0.000000  0.000000  0.500000  1
