# generated using pymatgen
data_Ca3Al2(SiO4)3
_symmetry_space_group_name_H-M   'P 1'
_cell_length_a   10.36545002
_cell_length_b   10.36545002
_cell_length_c   10.36545002
_cell_angle_alpha   109.47122065
_cell_angle_beta   109.47122065
_cell_angle_gamma   109.47122062
_symmetry_Int_Tables_number   1
_chemical_formula_structural   Ca3Al2(SiO4)3
_chemical_formula_sum   'Ca12 Al8 Si12 O48'
_cell_volume   857.31928866
_cell_formula_units_Z   4
loop_
 _symmetry_equiv_pos_site_id
 _symmetry_equiv_pos_as_xyz
  1  'x, y, z'
loop_
 _atom_site_type_symbol
 _atom_site_label
 _atom_site_symmetry_multiplicity
 _atom_site_fract_x
 _atom_site_fract_y
 _atom_site_fract_z
 _atom_site_occupancy
  O  O0  1  0.506748  0.393469  0.810772  1
  O  O1  1  0.106531  0.613279  0.417303  1
  O  O2  1  0.689228  0.082697  0.695976  1
  O  O3  1  0.993252  0.804024  0.886721  1
  O  O4  1  0.993252  0.689228  0.106531  1
  O  O5  1  0.804024  0.886721  0.993252  1
  O  O6  1  0.082697  0.886721  0.393469  1
  O  O7  1  0.886721  0.993252  0.804024  1
  O  O8  1  0.417303  0.810772  0.804024  1
  O  O9  1  0.613279  0.695976  0.506748  1
  O  O10  1  0.695976  0.506748  0.613279  1
  O  O11  1  0.106531  0.993252  0.689228  1
  O  O12  1  0.886721  0.393469  0.082697  1
  O  O13  1  0.804024  0.417303  0.810772  1
  O  O14  1  0.689228  0.106531  0.993252  1
  O  O15  1  0.393469  0.082697  0.886721  1
  O  O16  1  0.810772  0.804024  0.417303  1
  O  O17  1  0.417303  0.106531  0.613279  1
  O  O18  1  0.082697  0.695976  0.689228  1
  O  O19  1  0.582697  0.189228  0.195976  1
  O  O20  1  0.695976  0.689228  0.082697  1
  O  O21  1  0.810772  0.506748  0.393469  1
  O  O22  1  0.613279  0.417303  0.106531  1
  O  O23  1  0.506748  0.613279  0.695976  1
  O  O24  1  0.493252  0.606531  0.189228  1
  O  O25  1  0.893469  0.386721  0.582697  1
  O  O26  1  0.310772  0.917303  0.304024  1
  O  O27  1  0.006748  0.195976  0.113279  1
  O  O28  1  0.006748  0.310772  0.893469  1
  O  O29  1  0.195976  0.113279  0.006748  1
  O  O30  1  0.917303  0.113279  0.606531  1
  O  O31  1  0.113279  0.006748  0.195976  1
  O  O32  1  0.493252  0.386721  0.304024  1
  O  O33  1  0.386721  0.582697  0.893469  1
  O  O34  1  0.189228  0.493252  0.606531  1
  O  O35  1  0.606531  0.189228  0.493252  1
  O  O36  1  0.304024  0.310772  0.917303  1
  O  O37  1  0.917303  0.304024  0.310772  1
  O  O38  1  0.582697  0.893469  0.386721  1
  O  O39  1  0.189228  0.195976  0.582697  1
  O  O40  1  0.606531  0.917303  0.113279  1
  O  O41  1  0.310772  0.893469  0.006748  1
  O  O42  1  0.195976  0.582697  0.189228  1
  O  O43  1  0.113279  0.606531  0.917303  1
  O  O44  1  0.893469  0.006748  0.310772  1
  O  O45  1  0.304024  0.493252  0.386721  1
  O  O46  1  0.386721  0.304024  0.493252  1
  O  O47  1  0.393469  0.810772  0.506748  1
  Al  Al48  1  0.500000  0.000000  0.000000  1
  Al  Al49  1  0.000000  0.000000  0.000000  1
  Al  Al50  1  0.000000  0.500000  0.000000  1
  Al  Al51  1  0.000000  0.000000  0.500000  1
  Al  Al52  1  0.000000  0.500000  0.500000  1
  Al  Al53  1  0.500000  0.000000  0.500000  1
  Al  Al54  1  0.500000  0.500000  0.000000  1
  Al  Al55  1  0.500000  0.500000  0.500000  1
  Si  Si56  1  0.250000  0.125000  0.875000  1
  Si  Si57  1  0.875000  0.250000  0.125000  1
  Si  Si58  1  0.625000  0.750000  0.375000  1
  Si  Si59  1  0.250000  0.625000  0.375000  1
  Si  Si60  1  0.375000  0.625000  0.750000  1
  Si  Si61  1  0.750000  0.375000  0.625000  1
  Si  Si62  1  0.875000  0.125000  0.750000  1
  Si  Si63  1  0.125000  0.750000  0.875000  1
  Si  Si64  1  0.125000  0.875000  0.250000  1
  Si  Si65  1  0.625000  0.375000  0.250000  1
  Si  Si66  1  0.375000  0.250000  0.625000  1
  Si  Si67  1  0.750000  0.875000  0.125000  1
  Ca  Ca68  1  0.250000  0.875000  0.625000  1
  Ca  Ca69  1  0.875000  0.625000  0.250000  1
  Ca  Ca70  1  0.625000  0.875000  0.750000  1
  Ca  Ca71  1  0.875000  0.750000  0.625000  1
  Ca  Ca72  1  0.625000  0.250000  0.875000  1
  Ca  Ca73  1  0.750000  0.625000  0.875000  1
  Ca  Ca74  1  0.750000  0.125000  0.375000  1
  Ca  Ca75  1  0.125000  0.375000  0.750000  1
  Ca  Ca76  1  0.375000  0.125000  0.250000  1
  Ca  Ca77  1  0.125000  0.250000  0.375000  1
  Ca  Ca78  1  0.375000  0.750000  0.125000  1
  Ca  Ca79  1  0.250000  0.375000  0.125000  1
