# generated using pymatgen
data_CoCl2
_symmetry_space_group_name_H-M   'P 1'
_cell_length_a   12.24494760
_cell_length_b   5.53443846
_cell_length_c   6.39859311
_cell_angle_alpha   146.48959366
_cell_angle_beta   163.10654551
_cell_angle_gamma   29.37955610
_symmetry_Int_Tables_number   1
_chemical_formula_structural   CoCl2
_chemical_formula_sum   'Co1 Cl2'
_cell_volume   61.81888798
_cell_formula_units_Z   1
loop_
 _symmetry_equiv_pos_site_id
 _symmetry_equiv_pos_as_xyz
  1  'x, y, z'
loop_
 _atom_site_type_symbol
 _atom_site_label
 _atom_site_symmetry_multiplicity
 _atom_site_fract_x
 _atom_site_fract_y
 _atom_site_fract_z
 _atom_site_occupancy
  Co  Co0  1  0.000000  0.000000  0.000000  1
  Cl  Cl1  1  0.323807  0.121267  -0.000000  1
  Cl  Cl2  1  0.676193  0.878733  0.000000  1
