# generated using pymatgen
data_SnSe
_symmetry_space_group_name_H-M   'P 1'
_cell_length_a   6.12317206
_cell_length_b   4.00476596
_cell_length_c   5.95762776
_cell_angle_alpha   109.63969260
_cell_angle_beta   90.00000000
_cell_angle_gamma   90.00000000
_symmetry_Int_Tables_number   1
_chemical_formula_structural   SnSe
_chemical_formula_sum   'Sn2 Se2'
_cell_volume   137.59324321
_cell_formula_units_Z   2
loop_
 _symmetry_equiv_pos_site_id
 _symmetry_equiv_pos_as_xyz
  1  'x, y, z'
loop_
 _atom_site_type_symbol
 _atom_site_label
 _atom_site_symmetry_multiplicity
 _atom_site_fract_x
 _atom_site_fract_y
 _atom_site_fract_z
 _atom_site_occupancy
  Sn  Sn0  1  0.250000  0.838803  0.677607  1
  Sn  Sn1  1  0.750000  0.161197  0.322393  1
  Se  Se2  1  0.250000  0.169147  0.338293  1
  Se  Se3  1  0.750000  0.830854  0.661707  1
