# generated using pymatgen
data_MnSbPt
_symmetry_space_group_name_H-M   'P 1'
_cell_length_a   4.34331018
_cell_length_b   4.34330710
_cell_length_c   4.34330982
_cell_angle_alpha   59.99973644
_cell_angle_beta   59.99973815
_cell_angle_gamma   59.99976284
_symmetry_Int_Tables_number   1
_chemical_formula_structural   MnSbPt
_chemical_formula_sum   'Mn1 Sb1 Pt1'
_cell_volume   57.93549109
_cell_formula_units_Z   1
loop_
 _symmetry_equiv_pos_site_id
 _symmetry_equiv_pos_as_xyz
  1  'x, y, z'
loop_
 _atom_site_type_symbol
 _atom_site_label
 _atom_site_symmetry_multiplicity
 _atom_site_fract_x
 _atom_site_fract_y
 _atom_site_fract_z
 _atom_site_occupancy
  Mn  Mn0  1  0.250002  0.249999  0.249998  1
  Sb  Sb1  1  -0.000001  0.000001  0.000000  1
  Pt  Pt2  1  0.499999  0.500000  0.500002  1
