# generated using pymatgen
data_ZrH
_symmetry_space_group_name_H-M   'P 1'
_cell_length_a   3.41714530
_cell_length_b   3.41714530
_cell_length_c   3.41714530
_cell_angle_alpha   122.48852993
_cell_angle_beta   122.48852993
_cell_angle_gamma   85.74120798
_symmetry_Int_Tables_number   1
_chemical_formula_structural   ZrH
_chemical_formula_sum   'Zr1 H1'
_cell_volume   27.07189566
_cell_formula_units_Z   1
loop_
 _symmetry_equiv_pos_site_id
 _symmetry_equiv_pos_as_xyz
  1  'x, y, z'
loop_
 _atom_site_type_symbol
 _atom_site_label
 _atom_site_symmetry_multiplicity
 _atom_site_fract_x
 _atom_site_fract_y
 _atom_site_fract_z
 _atom_site_occupancy
  Zr  Zr0  1  0.000000  0.000000  0.000000  1
  H  H1  1  0.750000  0.250000  0.500000  1
