# generated using pymatgen
data_Mg3Si4(HO6)2
_symmetry_space_group_name_H-M   'P 1'
_cell_length_a   5.34726305
_cell_length_b   5.35669147
_cell_length_c   9.60695677
_cell_angle_alpha   86.74107919
_cell_angle_beta   95.55860437
_cell_angle_gamma   59.95863051
_symmetry_Int_Tables_number   1
_chemical_formula_structural   Mg3Si4(HO6)2
_chemical_formula_sum   'Mg3 Si4 H2 O12'
_cell_volume   235.31302990
_cell_formula_units_Z   1
loop_
 _symmetry_equiv_pos_site_id
 _symmetry_equiv_pos_as_xyz
  1  'x, y, z'
loop_
 _atom_site_type_symbol
 _atom_site_label
 _atom_site_symmetry_multiplicity
 _atom_site_fract_x
 _atom_site_fract_y
 _atom_site_fract_z
 _atom_site_occupancy
  Mg  Mg0  1  0.000000  0.000000  0.000000  1
  Mg  Mg1  1  0.667405  0.664754  0.002794  1
  Mg  Mg2  1  0.332595  0.335246  0.997206  1
  Si  Si3  1  0.248423  0.743155  0.709150  1
  Si  Si4  1  0.751577  0.256845  0.290850  1
  Si  Si5  1  0.914843  0.409008  0.709291  1
  Si  Si6  1  0.085157  0.590992  0.290709  1
  H  H7  1  0.598727  0.044789  0.788640  1
  H  H8  1  0.401273  0.955211  0.211360  1
  O  O9  1  0.299690  0.696849  0.881789  1
  O  O10  1  0.700310  0.303151  0.118211  1
  O  O11  1  0.964249  0.363055  0.881837  1
  O  O12  1  0.035751  0.636945  0.118163  1
  O  O13  1  0.081110  0.573913  0.651766  1
  O  O14  1  0.918890  0.426087  0.348234  1
  O  O15  1  0.048460  0.090921  0.650394  1
  O  O16  1  0.951540  0.909079  0.349606  1
  O  O17  1  0.564137  0.610804  0.650488  1
  O  O18  1  0.435863  0.389196  0.349512  1
  O  O19  1  0.634552  0.024253  0.890616  1
  O  O20  1  0.365448  0.975747  0.109384  1
