# generated using pymatgen
data_ZrZn
_symmetry_space_group_name_H-M   'P 1'
_cell_length_a   3.89504420
_cell_length_b   3.89433866
_cell_length_c   3.89442082
_cell_angle_alpha   60.00816117
_cell_angle_beta   60.01420995
_cell_angle_gamma   60.01380484
_symmetry_Int_Tables_number   1
_chemical_formula_structural   ZrZn
_chemical_formula_sum   'Zr1 Zn1'
_cell_volume   41.78233371
_cell_formula_units_Z   1
loop_
 _symmetry_equiv_pos_site_id
 _symmetry_equiv_pos_as_xyz
  1  'x, y, z'
loop_
 _atom_site_type_symbol
 _atom_site_label
 _atom_site_symmetry_multiplicity
 _atom_site_fract_x
 _atom_site_fract_y
 _atom_site_fract_z
 _atom_site_occupancy
  Zr  Zr0  1  0.499937  0.499999  0.500106  1
  Zn  Zn1  1  0.000063  0.000001  0.999894  1
