# generated using pymatgen
data_GaFe2Ni
_symmetry_space_group_name_H-M   'P 1'
_cell_length_a   4.08466080
_cell_length_b   4.08466365
_cell_length_c   4.08466186
_cell_angle_alpha   60.00061104
_cell_angle_beta   60.00061129
_cell_angle_gamma   60.00058291
_symmetry_Int_Tables_number   1
_chemical_formula_structural   GaFe2Ni
_chemical_formula_sum   'Ga1 Fe2 Ni1'
_cell_volume   48.19026737
_cell_formula_units_Z   1
loop_
 _symmetry_equiv_pos_site_id
 _symmetry_equiv_pos_as_xyz
  1  'x, y, z'
loop_
 _atom_site_type_symbol
 _atom_site_label
 _atom_site_symmetry_multiplicity
 _atom_site_fract_x
 _atom_site_fract_y
 _atom_site_fract_z
 _atom_site_occupancy
  Ga  Ga0  1  0.000000  0.000000  0.000000  1
  Fe  Fe1  1  0.249999  0.250000  0.249999  1
  Fe  Fe2  1  0.750001  0.750000  0.750001  1
  Ni  Ni3  1  0.500000  0.500000  0.500000  1
