# generated using pymatgen
data_Zr2Co
_symmetry_space_group_name_H-M   'P 1'
_cell_length_a   5.27082558
_cell_length_b   5.27082557
_cell_length_c   5.27082557
_cell_angle_alpha   105.95398021
_cell_angle_beta   105.95398020
_cell_angle_gamma   116.76098456
_symmetry_Int_Tables_number   1
_chemical_formula_structural   Zr2Co
_chemical_formula_sum   'Zr4 Co2'
_cell_volume   111.33829145
_cell_formula_units_Z   2
loop_
 _symmetry_equiv_pos_site_id
 _symmetry_equiv_pos_as_xyz
  1  'x, y, z'
loop_
 _atom_site_type_symbol
 _atom_site_label
 _atom_site_symmetry_multiplicity
 _atom_site_fract_x
 _atom_site_fract_y
 _atom_site_fract_z
 _atom_site_occupancy
  Co  Co0  1  0.250000  0.250000  0.000000  1
  Co  Co1  1  0.750000  0.750000  0.000000  1
  Zr  Zr2  1  0.671680  0.171680  0.843359  1
  Zr  Zr3  1  0.171680  0.328320  0.500000  1
  Zr  Zr4  1  0.828320  0.671680  0.500000  1
  Zr  Zr5  1  0.328320  0.828320  0.156641  1
