# generated using pymatgen
data_Co
_symmetry_space_group_name_H-M   'P 1'
_cell_length_a   7.86000974
_cell_length_b   7.86001006
_cell_length_c   9.68637248
_cell_angle_alpha   90.00000000
_cell_angle_beta   90.00000000
_cell_angle_gamma   119.99999865
_symmetry_Int_Tables_number   1
_chemical_formula_structural   Co
_chemical_formula_sum   Co46
_cell_volume   518.24842296
_cell_formula_units_Z   46
loop_
 _symmetry_equiv_pos_site_id
 _symmetry_equiv_pos_as_xyz
  1  'x, y, z'
loop_
 _atom_site_type_symbol
 _atom_site_label
 _atom_site_symmetry_multiplicity
 _atom_site_fract_x
 _atom_site_fract_y
 _atom_site_fract_z
 _atom_site_occupancy
  Co  Co0  1  0.000000  0.000000  0.351763  1
  Co  Co1  1  0.326493  0.163246  0.477930  1
  Co  Co2  1  0.188617  0.377235  0.227672  1
  Co  Co3  1  0.001753  0.500877  0.096617  1
  Co  Co4  1  0.811383  0.188617  0.727672  1
  Co  Co5  1  0.499123  0.500877  0.096617  1
  Co  Co6  1  0.675205  0.837602  0.726210  1
  Co  Co7  1  0.000000  0.000000  0.851763  1
  Co  Co8  1  0.499123  0.998247  0.096617  1
  Co  Co9  1  0.485407  0.514593  0.846779  1
  Co  Co10  1  0.836754  0.673507  0.477930  1
  Co  Co11  1  0.000000  0.000000  0.104332  1
  Co  Co12  1  0.175476  0.350952  0.478198  1
  Co  Co13  1  0.836754  0.163246  0.477930  1
  Co  Co14  1  0.350952  0.175476  0.978198  1
  Co  Co15  1  0.824524  0.649048  0.978198  1
  Co  Co16  1  0.333333  0.666667  0.384061  1
  Co  Co17  1  0.824524  0.175476  0.978198  1
  Co  Co18  1  0.673507  0.836754  0.977930  1
  Co  Co19  1  0.029187  0.514593  0.846779  1
  Co  Co20  1  0.514593  0.029187  0.346779  1
  Co  Co21  1  0.500877  0.499123  0.596617  1
  Co  Co22  1  0.649048  0.824524  0.478198  1
  Co  Co23  1  0.622765  0.811383  0.227672  1
  Co  Co24  1  0.514593  0.485407  0.346779  1
  Co  Co25  1  0.163246  0.836754  0.977930  1
  Co  Co26  1  0.500877  0.001753  0.596617  1
  Co  Co27  1  0.837602  0.675205  0.226210  1
  Co  Co28  1  0.333333  0.666667  0.678776  1
  Co  Co29  1  0.162398  0.324795  0.726210  1
  Co  Co30  1  0.970813  0.485407  0.346779  1
  Co  Co31  1  0.666667  0.333333  0.178776  1
  Co  Co32  1  0.485407  0.970813  0.846779  1
  Co  Co33  1  0.175476  0.824524  0.478198  1
  Co  Co34  1  0.837602  0.162398  0.226210  1
  Co  Co35  1  0.163246  0.326493  0.977930  1
  Co  Co36  1  0.666667  0.333333  0.884061  1
  Co  Co37  1  0.666667  0.333333  0.489654  1
  Co  Co38  1  0.811383  0.622765  0.727672  1
  Co  Co39  1  0.162398  0.837602  0.726210  1
  Co  Co40  1  0.377235  0.188617  0.727672  1
  Co  Co41  1  0.000000  0.000000  0.604332  1
  Co  Co42  1  0.324795  0.162398  0.226210  1
  Co  Co43  1  0.333333  0.666667  0.989654  1
  Co  Co44  1  0.188617  0.811383  0.227672  1
  Co  Co45  1  0.998247  0.499123  0.596617  1
