# generated using pymatgen
data_Y2FeB
_symmetry_space_group_name_H-M   'P 1'
_cell_length_a   4.56241217
_cell_length_b   4.56241122
_cell_length_c   4.56240635
_cell_angle_alpha   59.99998016
_cell_angle_beta   60.00000989
_cell_angle_gamma   59.99987952
_symmetry_Int_Tables_number   1
_chemical_formula_structural   Y2FeB
_chemical_formula_sum   'Y2 Fe1 B1'
_cell_volume   67.15331888
_cell_formula_units_Z   1
loop_
 _symmetry_equiv_pos_site_id
 _symmetry_equiv_pos_as_xyz
  1  'x, y, z'
loop_
 _atom_site_type_symbol
 _atom_site_label
 _atom_site_symmetry_multiplicity
 _atom_site_fract_x
 _atom_site_fract_y
 _atom_site_fract_z
 _atom_site_occupancy
  Y  Y0  1  1.000000  0.000000  0.000001  1
  Y  Y1  1  0.750000  0.750000  0.749999  1
  Fe  Fe2  1  0.249999  0.250000  0.250000  1
  B  B3  1  0.500001  0.500000  0.500000  1
