# generated using pymatgen
data_NbS2
_symmetry_space_group_name_H-M   'P 1'
_cell_length_a   3.38488281
_cell_length_b   5.86270142
_cell_length_c   14.23822825
_cell_angle_alpha   89.98884773
_cell_angle_beta   89.97636544
_cell_angle_gamma   30.08677309
_symmetry_Int_Tables_number   1
_chemical_formula_structural   NbS2
_chemical_formula_sum   'Nb2 S4'
_cell_volume   141.64607361
_cell_formula_units_Z   2
loop_
 _symmetry_equiv_pos_site_id
 _symmetry_equiv_pos_as_xyz
  1  'x, y, z'
loop_
 _atom_site_type_symbol
 _atom_site_label
 _atom_site_symmetry_multiplicity
 _atom_site_fract_x
 _atom_site_fract_y
 _atom_site_fract_z
 _atom_site_occupancy
  Nb  Nb0  1  0.999941  0.000060  0.000001  1
  Nb  Nb1  1  0.000075  0.999953  0.500002  1
  S  S2  1  0.001013  0.332913  0.108390  1
  S  S3  1  0.998929  0.667159  0.891608  1
  S  S4  1  0.998268  0.667297  0.608370  1
  S  S5  1  0.001874  0.332617  0.391630  1
