# generated using pymatgen
data_LaSi
_symmetry_space_group_name_H-M   'P 1'
_cell_length_a   4.58413451
_cell_length_b   6.64489770
_cell_length_c   7.09399486
_cell_angle_alpha   90.00000000
_cell_angle_beta   108.85048261
_cell_angle_gamma   90.00000000
_symmetry_Int_Tables_number   1
_chemical_formula_structural   LaSi
_chemical_formula_sum   'La4 Si4'
_cell_volume   204.50087388
_cell_formula_units_Z   4
loop_
 _symmetry_equiv_pos_site_id
 _symmetry_equiv_pos_as_xyz
  1  'x, y, z'
loop_
 _atom_site_type_symbol
 _atom_site_label
 _atom_site_symmetry_multiplicity
 _atom_site_fract_x
 _atom_site_fract_y
 _atom_site_fract_z
 _atom_site_occupancy
  Si  Si0  1  0.908537  0.062687  0.817075  1
  Si  Si1  1  0.091463  0.937313  0.182925  1
  Si  Si2  1  0.091463  0.562687  0.182925  1
  Si  Si3  1  0.908537  0.437313  0.817075  1
  La  La4  1  0.725041  0.750000  0.450082  1
  La  La5  1  0.274959  0.250000  0.549918  1
  La  La6  1  0.448452  0.750000  0.896904  1
  La  La7  1  0.551548  0.250000  0.103096  1
