# generated using pymatgen
data_ThSe2
_symmetry_space_group_name_H-M   'P 1'
_cell_length_a   4.44366197
_cell_length_b   7.63593303
_cell_length_c   9.13824155
_cell_angle_alpha   90.00000000
_cell_angle_beta   90.00000000
_cell_angle_gamma   90.00000000
_symmetry_Int_Tables_number   1
_chemical_formula_structural   ThSe2
_chemical_formula_sum   'Th4 Se8'
_cell_volume   310.07429077
_cell_formula_units_Z   4
loop_
 _symmetry_equiv_pos_site_id
 _symmetry_equiv_pos_as_xyz
  1  'x, y, z'
loop_
 _atom_site_type_symbol
 _atom_site_label
 _atom_site_symmetry_multiplicity
 _atom_site_fract_x
 _atom_site_fract_y
 _atom_site_fract_z
 _atom_site_occupancy
  Se  Se0  1  0.250000  0.028470  0.663940  1
  Se  Se1  1  0.750000  0.971530  0.336060  1
  Se  Se2  1  0.250000  0.528470  0.836060  1
  Se  Se3  1  0.750000  0.471530  0.163940  1
  Se  Se4  1  0.750000  0.359739  0.570167  1
  Se  Se5  1  0.250000  0.640261  0.429833  1
  Se  Se6  1  0.750000  0.859739  0.929833  1
  Se  Se7  1  0.250000  0.140261  0.070167  1
  Th  Th8  1  0.250000  0.251173  0.378315  1
  Th  Th9  1  0.750000  0.748826  0.621685  1
  Th  Th10  1  0.250000  0.751174  0.121685  1
  Th  Th11  1  0.750000  0.248827  0.878315  1
