# generated using pymatgen
data_KTiF4
_symmetry_space_group_name_H-M   'P 1'
_cell_length_a   4.01377959
_cell_length_b   7.83088193
_cell_length_c   12.43477587
_cell_angle_alpha   142.36243667
_cell_angle_beta   89.29163194
_cell_angle_gamma   75.75920987
_symmetry_Int_Tables_number   1
_chemical_formula_structural   KTiF4
_chemical_formula_sum   'K2 Ti2 F8'
_cell_volume   216.70702649
_cell_formula_units_Z   2
loop_
 _symmetry_equiv_pos_site_id
 _symmetry_equiv_pos_as_xyz
  1  'x, y, z'
loop_
 _atom_site_type_symbol
 _atom_site_label
 _atom_site_symmetry_multiplicity
 _atom_site_fract_x
 _atom_site_fract_y
 _atom_site_fract_z
 _atom_site_occupancy
  K  K0  1  0.986917  0.500529  0.191714  1
  K  K1  1  0.998280  0.499462  0.807023  1
  Ti  Ti2  1  0.185942  0.118063  0.309078  1
  Ti  Ti3  1  0.804389  0.882008  0.691798  1
  F  F4  1  0.990247  0.500386  0.600472  1
  F  F5  1  0.319696  0.854594  0.054793  1
  F  F6  1  0.675474  0.143587  0.698650  1
  F  F7  1  0.691225  0.106821  0.304960  1
  F  F8  1  0.298445  0.893137  0.698309  1
  F  F9  1  0.311328  0.856911  0.303934  1
  F  F10  1  0.666970  0.144966  0.947301  1
  F  F11  1  0.004625  0.499536  0.400924  1
