# generated using pymatgen
data_ZrSiRu
_symmetry_space_group_name_H-M   'P 1'
_cell_length_a   6.71353780
_cell_length_b   6.71353780
_cell_length_c   3.72255044
_cell_angle_alpha   90.00000000
_cell_angle_beta   90.00000000
_cell_angle_gamma   120.00000002
_symmetry_Int_Tables_number   1
_chemical_formula_structural   ZrSiRu
_chemical_formula_sum   'Zr3 Si3 Ru3'
_cell_volume   145.30283889
_cell_formula_units_Z   3
loop_
 _symmetry_equiv_pos_site_id
 _symmetry_equiv_pos_as_xyz
  1  'x, y, z'
loop_
 _atom_site_type_symbol
 _atom_site_label
 _atom_site_symmetry_multiplicity
 _atom_site_fract_x
 _atom_site_fract_y
 _atom_site_fract_z
 _atom_site_occupancy
  Si  Si0  1  0.000000  0.000000  0.500000  1
  Si  Si1  1  0.666667  0.333333  0.000000  1
  Si  Si2  1  0.333333  0.666667  0.000000  1
  Zr  Zr3  1  0.414896  0.414896  0.500000  1
  Zr  Zr4  1  0.585104  0.000000  0.500000  1
  Zr  Zr5  1  0.000000  0.585104  0.500000  1
  Ru  Ru6  1  0.000000  0.244202  0.000000  1
  Ru  Ru7  1  0.244202  0.000000  0.000000  1
  Ru  Ru8  1  0.755798  0.755798  0.000000  1
