# generated using pymatgen
data_H2
_symmetry_space_group_name_H-M   'P 1'
_cell_length_a   2.88341973
_cell_length_b   2.84866221
_cell_length_c   3.00769534
_cell_angle_alpha   160.81642917
_cell_angle_beta   61.62538568
_cell_angle_gamma   120.28649632
_symmetry_Int_Tables_number   1
_chemical_formula_structural   H2
_chemical_formula_sum   H1
_cell_volume   7.00988916
_cell_formula_units_Z   0
loop_
 _symmetry_equiv_pos_site_id
 _symmetry_equiv_pos_as_xyz
  1  'x, y, z'
loop_
 _atom_site_type_symbol
 _atom_site_label
 _atom_site_symmetry_multiplicity
 _atom_site_fract_x
 _atom_site_fract_y
 _atom_site_fract_z
 _atom_site_occupancy
  H  H0  1  0.502702  0.499220  0.499945  1
