# generated using pymatgen
data_Rb2ZrO3
_symmetry_space_group_name_H-M   'P 1'
_cell_length_a   7.35007386
_cell_length_b   7.35007386
_cell_length_c   5.95713286
_cell_angle_alpha   85.91426125
_cell_angle_beta   94.08573875
_cell_angle_gamma   54.96373406
_symmetry_Int_Tables_number   1
_chemical_formula_structural   Rb2ZrO3
_chemical_formula_sum   'Rb4 Zr2 O6'
_cell_volume   260.34753243
_cell_formula_units_Z   2
loop_
 _symmetry_equiv_pos_site_id
 _symmetry_equiv_pos_as_xyz
  1  'x, y, z'
loop_
 _atom_site_type_symbol
 _atom_site_label
 _atom_site_symmetry_multiplicity
 _atom_site_fract_x
 _atom_site_fract_y
 _atom_site_fract_z
 _atom_site_occupancy
  Rb  Rb0  1  0.615387  0.561222  0.517216  1
  Rb  Rb1  1  0.237254  0.248110  0.521915  1
  Rb  Rb2  1  0.438778  0.384613  0.017216  1
  Rb  Rb3  1  0.751890  0.762746  0.021915  1
  Zr  Zr4  1  0.988048  0.911624  0.537224  1
  Zr  Zr5  1  0.088376  0.011952  0.037224  1
  O  O6  1  0.259085  0.808356  0.772597  1
  O  O7  1  0.191644  0.740915  0.272597  1
  O  O8  1  0.871235  0.728568  0.568287  1
  O  O9  1  0.818793  0.134323  0.780562  1
  O  O10  1  0.271431  0.128765  0.068287  1
  O  O11  1  0.865677  0.181207  0.280562  1
