# generated using pymatgen
data_TlF
_symmetry_space_group_name_H-M   'P 1'
_cell_length_a   5.25797976
_cell_length_b   5.76288451
_cell_length_c   6.40237886
_cell_angle_alpha   90.00000000
_cell_angle_beta   90.00000000
_cell_angle_gamma   90.00000000
_symmetry_Int_Tables_number   1
_chemical_formula_structural   TlF
_chemical_formula_sum   'Tl4 F4'
_cell_volume   193.99931487
_cell_formula_units_Z   4
loop_
 _symmetry_equiv_pos_site_id
 _symmetry_equiv_pos_as_xyz
  1  'x, y, z'
loop_
 _atom_site_type_symbol
 _atom_site_label
 _atom_site_symmetry_multiplicity
 _atom_site_fract_x
 _atom_site_fract_y
 _atom_site_fract_z
 _atom_site_occupancy
  F  F0  1  0.250000  0.322276  0.869882  1
  F  F1  1  0.750000  0.677724  0.869882  1
  F  F2  1  0.250000  0.821964  0.584496  1
  F  F3  1  0.750000  0.178036  0.584496  1
  Tl  Tl4  1  0.250000  0.252809  0.485325  1
  Tl  Tl5  1  0.750000  0.747191  0.485325  1
  Tl  Tl6  1  0.250000  0.752783  0.969097  1
  Tl  Tl7  1  0.750000  0.247217  0.969097  1
