# generated using pymatgen
data_Al2O3
_symmetry_space_group_name_H-M   'P 1'
_cell_length_a   7.73357922
_cell_length_b   3.19127944
_cell_length_c   10.66447466
_cell_angle_alpha   90.12733377
_cell_angle_beta   28.65355924
_cell_angle_gamma   102.01811650
_symmetry_Int_Tables_number   1
_chemical_formula_structural   Al2O3
_chemical_formula_sum   'Al4 O6'
_cell_volume   113.93321579
_cell_formula_units_Z   2
loop_
 _symmetry_equiv_pos_site_id
 _symmetry_equiv_pos_as_xyz
  1  'x, y, z'
loop_
 _atom_site_type_symbol
 _atom_site_label
 _atom_site_symmetry_multiplicity
 _atom_site_fract_x
 _atom_site_fract_y
 _atom_site_fract_z
 _atom_site_occupancy
  Al  Al0  1  0.372532  0.677858  0.220034  1
  Al  Al1  1  0.187213  0.584220  0.656809  1
  Al  Al2  1  0.627428  0.304280  0.779992  1
  Al  Al3  1  0.812813  0.397177  0.343166  1
  O  O4  1  0.132846  0.558114  0.523626  1
  O  O5  1  0.396000  0.688744  0.957065  1
  O  O6  1  0.603994  0.293650  0.042955  1
  O  O7  1  0.229370  0.105523  0.704111  1
  O  O8  1  0.770697  0.876339  0.295829  1
  O  O9  1  0.867106  0.420381  0.476414  1
