# generated using pymatgen
data_Ac2IrPd
_symmetry_space_group_name_H-M   'P 1'
_cell_length_a   5.31378884
_cell_length_b   5.31378884
_cell_length_c   5.31378884
_cell_angle_alpha   60.00000000
_cell_angle_beta   60.00000000
_cell_angle_gamma   60.00000000
_symmetry_Int_Tables_number   1
_chemical_formula_structural   Ac2IrPd
_chemical_formula_sum   'Ac2 Ir1 Pd1'
_cell_volume   106.09572341
_cell_formula_units_Z   1
loop_
 _symmetry_equiv_pos_site_id
 _symmetry_equiv_pos_as_xyz
  1  'x, y, z'
loop_
 _atom_site_type_symbol
 _atom_site_label
 _atom_site_symmetry_multiplicity
 _atom_site_fract_x
 _atom_site_fract_y
 _atom_site_fract_z
 _atom_site_occupancy
  Ac  Ac0  1  0.499999  0.499999  0.499999  1
  Ac  Ac1  1  0.000000  0.000000  0.000000  1
  Ir  Ir2  1  0.249999  0.249999  0.249999  1
  Pd  Pd3  1  0.750000  0.750000  0.750000  1
