# generated using pymatgen
data_Ho2O3
_symmetry_space_group_name_H-M   'P 1'
_cell_length_a   9.18903598
_cell_length_b   9.18903598
_cell_length_c   9.18903598
_cell_angle_alpha   109.47122062
_cell_angle_beta   109.47122061
_cell_angle_gamma   109.47122064
_symmetry_Int_Tables_number   1
_chemical_formula_structural   Ho2O3
_chemical_formula_sum   'Ho16 O24'
_cell_volume   597.29374340
_cell_formula_units_Z   8
loop_
 _symmetry_equiv_pos_site_id
 _symmetry_equiv_pos_as_xyz
  1  'x, y, z'
loop_
 _atom_site_type_symbol
 _atom_site_label
 _atom_site_symmetry_multiplicity
 _atom_site_fract_x
 _atom_site_fract_y
 _atom_site_fract_z
 _atom_site_occupancy
  O  O0  1  0.729280  0.260515  0.771989  1
  O  O1  1  0.988526  0.957291  0.728011  1
  O  O2  1  0.511474  0.239485  0.968765  1
  O  O3  1  0.542709  0.531235  0.770720  1
  O  O4  1  0.531235  0.770720  0.542709  1
  O  O5  1  0.771989  0.729280  0.260515  1
  O  O6  1  0.957291  0.728011  0.988526  1
  O  O7  1  0.968765  0.511474  0.239485  1
  O  O8  1  0.260515  0.771989  0.729280  1
  O  O9  1  0.728011  0.988526  0.957291  1
  O  O10  1  0.239485  0.968765  0.511474  1
  O  O11  1  0.770720  0.542709  0.531235  1
  O  O12  1  0.042715  0.271928  0.011441  1
  O  O13  1  0.760487  0.031274  0.488559  1
  O  O14  1  0.739513  0.228072  0.270787  1
  O  O15  1  0.468726  0.229213  0.457285  1
  O  O16  1  0.457285  0.468726  0.229213  1
  O  O17  1  0.228072  0.270787  0.739513  1
  O  O18  1  0.488559  0.760487  0.031274  1
  O  O19  1  0.271928  0.011441  0.042715  1
  O  O20  1  0.270787  0.739513  0.228072  1
  O  O21  1  0.031274  0.488559  0.760487  1
  O  O22  1  0.011441  0.042715  0.271928  1
  O  O23  1  0.229213  0.457285  0.468726  1
  Ho  Ho24  1  0.750000  0.782673  0.032673  1
  Ho  Ho25  1  0.467327  0.250000  0.717327  1
  Ho  Ho26  1  0.717327  0.467327  0.250000  1
  Ho  Ho27  1  0.032673  0.750000  0.782673  1
  Ho  Ho28  1  0.782673  0.032673  0.750000  1
  Ho  Ho29  1  0.250000  0.717327  0.467327  1
  Ho  Ho30  1  0.750000  0.282715  0.532715  1
  Ho  Ho31  1  0.967285  0.250000  0.217285  1
  Ho  Ho32  1  0.217285  0.967285  0.250000  1
  Ho  Ho33  1  0.532715  0.750000  0.282715  1
  Ho  Ho34  1  0.282715  0.532715  0.750000  1
  Ho  Ho35  1  0.250000  0.217285  0.967285  1
  Ho  Ho36  1  0.000061  0.500000  0.000000  1
  Ho  Ho37  1  0.500000  0.000000  0.000061  1
  Ho  Ho38  1  0.000000  0.000061  0.500000  1
  Ho  Ho39  1  0.499939  0.499939  0.499939  1
