# generated using pymatgen
data_Li4TiS4
_symmetry_space_group_name_H-M   'P 1'
_cell_length_a   5.86897769
_cell_length_b   6.89287522
_cell_length_c   5.86897769
_cell_angle_alpha   64.80325374
_cell_angle_beta   90.00000000
_cell_angle_gamma   115.19674626
_symmetry_Int_Tables_number   1
_chemical_formula_structural   Li4TiS4
_chemical_formula_sum   'Li4 Ti1 S4'
_cell_volume   189.56988420
_cell_formula_units_Z   1
loop_
 _symmetry_equiv_pos_site_id
 _symmetry_equiv_pos_as_xyz
  1  'x, y, z'
loop_
 _atom_site_type_symbol
 _atom_site_label
 _atom_site_symmetry_multiplicity
 _atom_site_fract_x
 _atom_site_fract_y
 _atom_site_fract_z
 _atom_site_occupancy
  Li  Li0  1  0.500000  0.000000  0.000000  1
  Li  Li1  1  0.000000  0.000000  0.500000  1
  Li  Li2  1  0.725233  0.450467  0.274767  1
  Li  Li3  1  0.274767  0.549533  0.725233  1
  Ti  Ti4  1  0.000000  0.000000  0.000000  1
  S  S5  1  0.341357  0.238087  0.103270  1
  S  S6  1  0.658643  0.761913  0.341357  1
  S  S7  1  0.896730  0.238087  0.658643  1
  S  S8  1  0.103270  0.761913  0.896730  1
