# generated using pymatgen
data_Cu3Si
_symmetry_space_group_name_H-M   'P 1'
_cell_length_a   5.15985632
_cell_length_b   5.15993585
_cell_length_c   4.14149964
_cell_angle_alpha   89.99465600
_cell_angle_beta   90.00632096
_cell_angle_gamma   119.99547413
_symmetry_Int_Tables_number   1
_chemical_formula_structural   Cu3Si
_chemical_formula_sum   'Cu6 Si2'
_cell_volume   95.49705344
_cell_formula_units_Z   2
loop_
 _symmetry_equiv_pos_site_id
 _symmetry_equiv_pos_as_xyz
  1  'x, y, z'
loop_
 _atom_site_type_symbol
 _atom_site_label
 _atom_site_symmetry_multiplicity
 _atom_site_fract_x
 _atom_site_fract_y
 _atom_site_fract_z
 _atom_site_occupancy
  Cu  Cu0  1  0.167699  0.335406  0.250023  1
  Cu  Cu1  1  0.664596  0.832302  0.250020  1
  Cu  Cu2  1  0.167698  0.832301  0.249965  1
  Cu  Cu3  1  0.832339  0.664671  0.749973  1
  Cu  Cu4  1  0.335333  0.167660  0.749978  1
  Cu  Cu5  1  0.832337  0.167661  0.750037  1
  Si  Si6  1  0.333341  0.666653  0.750010  1
  Si  Si7  1  0.666654  0.333341  0.249991  1
