# generated using pymatgen
data_Th(SiTc)2
_symmetry_space_group_name_H-M   'P 1'
_cell_length_a   4.26142100
_cell_length_b   4.26142100
_cell_length_c   5.78640163
_cell_angle_alpha   111.60632588
_cell_angle_beta   111.60632593
_cell_angle_gamma   90.00000003
_symmetry_Int_Tables_number   1
_chemical_formula_structural   Th(SiTc)2
_chemical_formula_sum   'Th1 Si2 Tc2'
_cell_volume   89.70710444
_cell_formula_units_Z   1
loop_
 _symmetry_equiv_pos_site_id
 _symmetry_equiv_pos_as_xyz
  1  'x, y, z'
loop_
 _atom_site_type_symbol
 _atom_site_label
 _atom_site_symmetry_multiplicity
 _atom_site_fract_x
 _atom_site_fract_y
 _atom_site_fract_z
 _atom_site_occupancy
  Si  Si0  1  0.629579  0.629579  0.259158  1
  Si  Si1  1  0.370421  0.370421  0.740842  1
  Tc  Tc2  1  0.750000  0.250000  0.500000  1
  Tc  Tc3  1  0.250000  0.750000  0.500000  1
  Th  Th4  1  0.000000  0.000000  0.000000  1
