# generated using pymatgen
data_MoI3
_symmetry_space_group_name_H-M   'P 1'
_cell_length_a   10.91875788
_cell_length_b   10.91875733
_cell_length_c   3.71943339
_cell_angle_alpha   90.00000000
_cell_angle_beta   90.00000000
_cell_angle_gamma   120.00000166
_symmetry_Int_Tables_number   1
_chemical_formula_structural   MoI3
_chemical_formula_sum   'Mo2 I6'
_cell_volume   384.02001449
_cell_formula_units_Z   2
loop_
 _symmetry_equiv_pos_site_id
 _symmetry_equiv_pos_as_xyz
  1  'x, y, z'
loop_
 _atom_site_type_symbol
 _atom_site_label
 _atom_site_symmetry_multiplicity
 _atom_site_fract_x
 _atom_site_fract_y
 _atom_site_fract_z
 _atom_site_occupancy
  Mo  Mo0  1  0.666667  0.333333  0.250001  1
  Mo  Mo1  1  0.333333  0.666666  0.749999  1
  I  I2  1  0.779504  0.220496  0.749999  1
  I  I3  1  0.440994  0.220496  0.749999  1
  I  I4  1  0.779503  0.559005  0.749999  1
  I  I5  1  0.220496  0.779503  0.250001  1
  I  I6  1  0.559006  0.779503  0.250001  1
  I  I7  1  0.220497  0.440995  0.250001  1
