# generated using pymatgen
data_Ti3Bi
_symmetry_space_group_name_H-M   'P 1'
_cell_length_a   6.00294545
_cell_length_b   6.00294465
_cell_length_c   4.82614786
_cell_angle_alpha   90.00000000
_cell_angle_beta   90.00000000
_cell_angle_gamma   119.99999887
_symmetry_Int_Tables_number   1
_chemical_formula_structural   Ti3Bi
_chemical_formula_sum   'Ti6 Bi2'
_cell_volume   150.61214562
_cell_formula_units_Z   2
loop_
 _symmetry_equiv_pos_site_id
 _symmetry_equiv_pos_as_xyz
  1  'x, y, z'
loop_
 _atom_site_type_symbol
 _atom_site_label
 _atom_site_symmetry_multiplicity
 _atom_site_fract_x
 _atom_site_fract_y
 _atom_site_fract_z
 _atom_site_occupancy
  Ti  Ti0  1  0.158033  0.316066  0.249999  1
  Ti  Ti1  1  0.683933  0.841968  0.249999  1
  Ti  Ti2  1  0.158035  0.841968  0.249999  1
  Ti  Ti3  1  0.841967  0.683933  0.750001  1
  Ti  Ti4  1  0.316068  0.158035  0.750001  1
  Ti  Ti5  1  0.841967  0.158035  0.750001  1
  Bi  Bi6  1  0.333333  0.666667  0.750001  1
  Bi  Bi7  1  0.666667  0.333332  0.249999  1
