# generated using pymatgen
data_LuCl3
_symmetry_space_group_name_H-M   'P 1'
_cell_length_a   9.98268089
_cell_length_b   9.98268331
_cell_length_c   3.48908271
_cell_angle_alpha   90.00000000
_cell_angle_beta   90.00000000
_cell_angle_gamma   120.00000730
_symmetry_Int_Tables_number   1
_chemical_formula_structural   LuCl3
_chemical_formula_sum   'Lu2 Cl6'
_cell_volume   301.11774320
_cell_formula_units_Z   2
loop_
 _symmetry_equiv_pos_site_id
 _symmetry_equiv_pos_as_xyz
  1  'x, y, z'
loop_
 _atom_site_type_symbol
 _atom_site_label
 _atom_site_symmetry_multiplicity
 _atom_site_fract_x
 _atom_site_fract_y
 _atom_site_fract_z
 _atom_site_occupancy
  Lu  Lu0  1  0.666668  0.333334  0.249999  1
  Lu  Lu1  1  0.333334  0.666667  0.750000  1
  Cl  Cl2  1  0.778954  0.221047  0.750000  1
  Cl  Cl3  1  0.442096  0.221047  0.750000  1
  Cl  Cl4  1  0.778954  0.557905  0.750000  1
  Cl  Cl5  1  0.221047  0.778954  0.249999  1
  Cl  Cl6  1  0.557906  0.778954  0.249999  1
  Cl  Cl7  1  0.221048  0.442097  0.249999  1
