# generated using pymatgen
data_B2S3
_symmetry_space_group_name_H-M   'P 1'
_cell_length_a   5.45657083
_cell_length_b   5.45657208
_cell_length_c   8.37706407
_cell_angle_alpha   109.00710154
_cell_angle_beta   70.99290265
_cell_angle_gamma   119.99999238
_symmetry_Int_Tables_number   1
_chemical_formula_structural   B2S3
_chemical_formula_sum   'B4 S6'
_cell_volume   200.14768904
_cell_formula_units_Z   2
loop_
 _symmetry_equiv_pos_site_id
 _symmetry_equiv_pos_as_xyz
  1  'x, y, z'
loop_
 _atom_site_type_symbol
 _atom_site_label
 _atom_site_symmetry_multiplicity
 _atom_site_fract_x
 _atom_site_fract_y
 _atom_site_fract_z
 _atom_site_occupancy
  B  B0  1  0.583587  0.416412  0.249237  1
  B  B1  1  0.916412  0.083587  0.250762  1
  B  B2  1  0.083587  0.916413  0.749238  1
  B  B3  1  0.416412  0.583587  0.750763  1
  S  S4  1  0.918335  0.418334  0.250000  1
  S  S5  1  0.249999  0.081665  0.250000  1
  S  S6  1  0.581666  0.750001  0.250000  1
  S  S7  1  0.418333  0.250000  0.750000  1
  S  S8  1  0.749998  0.918331  0.750000  1
  S  S9  1  0.081666  0.581666  0.750000  1
