# generated using pymatgen
data_HfZn3
_symmetry_space_group_name_H-M   'P 1'
_cell_length_a   5.84485776
_cell_length_b   5.84485743
_cell_length_c   4.38871833
_cell_angle_alpha   90.00000000
_cell_angle_beta   90.00000000
_cell_angle_gamma   119.99998990
_symmetry_Int_Tables_number   1
_chemical_formula_structural   HfZn3
_chemical_formula_sum   'Hf2 Zn6'
_cell_volume   129.84231592
_cell_formula_units_Z   2
loop_
 _symmetry_equiv_pos_site_id
 _symmetry_equiv_pos_as_xyz
  1  'x, y, z'
loop_
 _atom_site_type_symbol
 _atom_site_label
 _atom_site_symmetry_multiplicity
 _atom_site_fract_x
 _atom_site_fract_y
 _atom_site_fract_z
 _atom_site_occupancy
  Hf  Hf0  1  0.333334  0.666667  0.750001  1
  Hf  Hf1  1  0.666668  0.333333  0.249999  1
  Zn  Zn2  1  0.159763  0.319526  0.249999  1
  Zn  Zn3  1  0.680476  0.840236  0.249999  1
  Zn  Zn4  1  0.159762  0.840236  0.249999  1
  Zn  Zn5  1  0.840239  0.680475  0.750001  1
  Zn  Zn6  1  0.319526  0.159764  0.750001  1
  Zn  Zn7  1  0.840238  0.159764  0.750001  1
