# generated using pymatgen
data_HoCl3
_symmetry_space_group_name_H-M   'P 1'
_cell_length_a   9.83977190
_cell_length_b   9.83976841
_cell_length_c   3.56939556
_cell_angle_alpha   90.00000000
_cell_angle_beta   90.00000000
_cell_angle_gamma   119.99999233
_symmetry_Int_Tables_number   1
_chemical_formula_structural   HoCl3
_chemical_formula_sum   'Ho2 Cl6'
_cell_volume   299.29209917
_cell_formula_units_Z   2
loop_
 _symmetry_equiv_pos_site_id
 _symmetry_equiv_pos_as_xyz
  1  'x, y, z'
loop_
 _atom_site_type_symbol
 _atom_site_label
 _atom_site_symmetry_multiplicity
 _atom_site_fract_x
 _atom_site_fract_y
 _atom_site_fract_z
 _atom_site_occupancy
  Ho  Ho0  1  0.333333  0.666667  0.750000  1
  Ho  Ho1  1  0.666667  0.333333  0.249998  1
  Cl  Cl2  1  0.217880  0.435760  0.249998  1
  Cl  Cl3  1  0.564239  0.782120  0.249998  1
  Cl  Cl4  1  0.217881  0.782120  0.249998  1
  Cl  Cl5  1  0.782120  0.564240  0.750000  1
  Cl  Cl6  1  0.435760  0.217880  0.750000  1
  Cl  Cl7  1  0.782121  0.217880  0.750000  1
