# generated using pymatgen
data_Y2MgGe2
_symmetry_space_group_name_H-M   'P 1'
_cell_length_a   7.28416757
_cell_length_b   7.28417008
_cell_length_c   4.26262711
_cell_angle_alpha   89.99988325
_cell_angle_beta   90.00005721
_cell_angle_gamma   89.99985165
_symmetry_Int_Tables_number   1
_chemical_formula_structural   Y2MgGe2
_chemical_formula_sum   'Y4 Mg2 Ge4'
_cell_volume   226.17122404
_cell_formula_units_Z   2
loop_
 _symmetry_equiv_pos_site_id
 _symmetry_equiv_pos_as_xyz
  1  'x, y, z'
loop_
 _atom_site_type_symbol
 _atom_site_label
 _atom_site_symmetry_multiplicity
 _atom_site_fract_x
 _atom_site_fract_y
 _atom_site_fract_z
 _atom_site_occupancy
  Y  Y0  1  0.322489  0.177512  0.500000  1
  Y  Y1  1  0.822488  0.322487  0.500000  1
  Y  Y2  1  0.177512  0.677511  0.499998  1
  Y  Y3  1  0.677512  0.822489  0.500000  1
  Mg  Mg4  1  0.000000  0.999999  1.000000  1
  Mg  Mg5  1  0.500000  0.500000  0.999999  1
  Ge  Ge6  1  0.623528  0.123527  0.999998  1
  Ge  Ge7  1  0.123529  0.376472  0.999999  1
  Ge  Ge8  1  0.876471  0.623529  0.000001  1
  Ge  Ge9  1  0.376470  0.876472  0.000002  1
