# generated using pymatgen
data_HfBr3
_symmetry_space_group_name_H-M   'P 1'
_cell_length_a   10.37520553
_cell_length_b   10.37515630
_cell_length_c   3.41783030
_cell_angle_alpha   90.00012943
_cell_angle_beta   89.99965777
_cell_angle_gamma   119.99793949
_symmetry_Int_Tables_number   1
_chemical_formula_structural   HfBr3
_chemical_formula_sum   'Hf2 Br6'
_cell_volume   318.62621232
_cell_formula_units_Z   2
loop_
 _symmetry_equiv_pos_site_id
 _symmetry_equiv_pos_as_xyz
  1  'x, y, z'
loop_
 _atom_site_type_symbol
 _atom_site_label
 _atom_site_symmetry_multiplicity
 _atom_site_fract_x
 _atom_site_fract_y
 _atom_site_fract_z
 _atom_site_occupancy
  Hf  Hf0  1  0.333333  0.666667  0.750015  1
  Hf  Hf1  1  0.666669  0.333330  0.249986  1
  Br  Br2  1  0.218442  0.436883  0.250014  1
  Br  Br3  1  0.563118  0.781560  0.250012  1
  Br  Br4  1  0.218438  0.781564  0.250023  1
  Br  Br5  1  0.781540  0.563091  0.749977  1
  Br  Br6  1  0.436909  0.218460  0.749978  1
  Br  Br7  1  0.781553  0.218445  0.749986  1
