# generated using pymatgen
data_PaSe3
_symmetry_space_group_name_H-M   'P 1'
_cell_length_a   6.12723795
_cell_length_b   6.12723825
_cell_length_c   5.26883008
_cell_angle_alpha   90.00000000
_cell_angle_beta   90.00000000
_cell_angle_gamma   120.00000373
_symmetry_Int_Tables_number   1
_chemical_formula_structural   PaSe3
_chemical_formula_sum   'Pa2 Se6'
_cell_volume   171.30668941
_cell_formula_units_Z   2
loop_
 _symmetry_equiv_pos_site_id
 _symmetry_equiv_pos_as_xyz
  1  'x, y, z'
loop_
 _atom_site_type_symbol
 _atom_site_label
 _atom_site_symmetry_multiplicity
 _atom_site_fract_x
 _atom_site_fract_y
 _atom_site_fract_z
 _atom_site_occupancy
  Pa  Pa0  1  0.666667  0.333333  0.250000  1
  Pa  Pa1  1  0.333334  0.666668  0.750001  1
  Se  Se2  1  0.824631  0.175367  0.750001  1
  Se  Se3  1  0.350736  0.175367  0.750001  1
  Se  Se4  1  0.824632  0.649265  0.750001  1
  Se  Se5  1  0.175368  0.824632  0.250000  1
  Se  Se6  1  0.649264  0.824632  0.250000  1
  Se  Se7  1  0.175367  0.350735  0.250000  1
