# generated using pymatgen
data_KPS3
_symmetry_space_group_name_H-M   'P 1'
_cell_length_a   7.00638109
_cell_length_b   7.26022540
_cell_length_c   7.26022539
_cell_angle_alpha   73.55285524
_cell_angle_beta   61.15000386
_cell_angle_gamma   61.15000386
_symmetry_Int_Tables_number   1
_chemical_formula_structural   KPS3
_chemical_formula_sum   'K2 P2 S6'
_cell_volume   282.71793619
_cell_formula_units_Z   2
loop_
 _symmetry_equiv_pos_site_id
 _symmetry_equiv_pos_as_xyz
  1  'x, y, z'
loop_
 _atom_site_type_symbol
 _atom_site_label
 _atom_site_symmetry_multiplicity
 _atom_site_fract_x
 _atom_site_fract_y
 _atom_site_fract_z
 _atom_site_occupancy
  P  P0  1  0.660081  0.339919  0.339919  1
  P  P1  1  0.339919  0.660081  0.660081  1
  S  S2  1  0.527696  0.229975  0.229975  1
  S  S3  1  0.987646  0.770025  0.770025  1
  S  S4  1  0.500000  0.319648  0.680352  1
  S  S5  1  0.500000  0.680352  0.319648  1
  S  S6  1  0.472304  0.770025  0.770025  1
  S  S7  1  0.012354  0.229975  0.229975  1
  K  K8  1  0.000000  0.251087  0.748913  1
  K  K9  1  0.000000  0.748913  0.251087  1
