# generated using pymatgen
data_Er2MgGe2
_symmetry_space_group_name_H-M   'P 1'
_cell_length_a   7.21745521
_cell_length_b   7.21742869
_cell_length_c   4.21683118
_cell_angle_alpha   89.99979965
_cell_angle_beta   90.00029999
_cell_angle_gamma   89.99976827
_symmetry_Int_Tables_number   1
_chemical_formula_structural   Er2MgGe2
_chemical_formula_sum   'Er4 Mg2 Ge4'
_cell_volume   219.66092774
_cell_formula_units_Z   2
loop_
 _symmetry_equiv_pos_site_id
 _symmetry_equiv_pos_as_xyz
  1  'x, y, z'
loop_
 _atom_site_type_symbol
 _atom_site_label
 _atom_site_symmetry_multiplicity
 _atom_site_fract_x
 _atom_site_fract_y
 _atom_site_fract_z
 _atom_site_occupancy
  Er  Er0  1  0.322968  0.177037  0.499997  1
  Er  Er1  1  0.822964  0.322968  0.500000  1
  Er  Er2  1  0.177034  0.677032  0.500002  1
  Er  Er3  1  0.677034  0.822966  0.500000  1
  Mg  Mg4  1  1.000000  0.000000  0.000001  1
  Mg  Mg5  1  0.500000  0.499999  0.000001  1
  Ge  Ge6  1  0.624350  0.124351  0.999999  1
  Ge  Ge7  1  0.124349  0.375649  0.000000  1
  Ge  Ge8  1  0.875651  0.624349  0.000000  1
  Ge  Ge9  1  0.375651  0.875650  0.999999  1
