# generated using pymatgen
data_NaLi3
_symmetry_space_group_name_H-M   'P 1'
_cell_length_a   6.49034218
_cell_length_b   6.49034313
_cell_length_c   5.30135400
_cell_angle_alpha   90.00000000
_cell_angle_beta   90.00000000
_cell_angle_gamma   120.00000775
_symmetry_Int_Tables_number   1
_chemical_formula_structural   NaLi3
_chemical_formula_sum   'Na2 Li6'
_cell_volume   193.39830126
_cell_formula_units_Z   2
loop_
 _symmetry_equiv_pos_site_id
 _symmetry_equiv_pos_as_xyz
  1  'x, y, z'
loop_
 _atom_site_type_symbol
 _atom_site_label
 _atom_site_symmetry_multiplicity
 _atom_site_fract_x
 _atom_site_fract_y
 _atom_site_fract_z
 _atom_site_occupancy
  Na  Na0  1  0.666666  0.333333  0.249999  1
  Na  Na1  1  0.333334  0.666668  0.749999  1
  Li  Li2  1  0.840349  0.159653  0.749999  1
  Li  Li3  1  0.319302  0.159653  0.749999  1
  Li  Li4  1  0.840349  0.680699  0.749999  1
  Li  Li5  1  0.159650  0.840347  0.249999  1
  Li  Li6  1  0.680695  0.840347  0.249999  1
  Li  Li7  1  0.159651  0.319301  0.249999  1
