# generated using pymatgen
data_NaCo3
_symmetry_space_group_name_H-M   'P 1'
_cell_length_a   6.01067952
_cell_length_b   6.01068096
_cell_length_c   4.01609217
_cell_angle_alpha   90.00000000
_cell_angle_beta   90.00000000
_cell_angle_gamma   119.99999958
_symmetry_Int_Tables_number   1
_chemical_formula_structural   NaCo3
_chemical_formula_sum   'Na2 Co6'
_cell_volume   125.65551490
_cell_formula_units_Z   2
loop_
 _symmetry_equiv_pos_site_id
 _symmetry_equiv_pos_as_xyz
  1  'x, y, z'
loop_
 _atom_site_type_symbol
 _atom_site_label
 _atom_site_symmetry_multiplicity
 _atom_site_fract_x
 _atom_site_fract_y
 _atom_site_fract_z
 _atom_site_occupancy
  Na  Na0  1  0.666667  0.333331  0.250000  1
  Na  Na1  1  0.333334  0.666667  0.750000  1
  Co  Co2  1  0.131493  0.868504  0.250000  1
  Co  Co3  1  0.737012  0.868504  0.250000  1
  Co  Co4  1  0.131494  0.262987  0.250000  1
  Co  Co5  1  0.868506  0.131494  0.750000  1
  Co  Co6  1  0.262987  0.131494  0.750000  1
  Co  Co7  1  0.868506  0.737013  0.750000  1
