# generated using pymatgen
data_SiO2
_symmetry_space_group_name_H-M   'P 1'
_cell_length_a   4.99271989
_cell_length_b   4.86432821
_cell_length_c   8.01779401
_cell_angle_alpha   89.99997731
_cell_angle_beta   90.00002574
_cell_angle_gamma   117.00846913
_symmetry_Int_Tables_number   1
_chemical_formula_structural   SiO2
_chemical_formula_sum   'Si4 O8'
_cell_volume   173.48548095
_cell_formula_units_Z   4
loop_
 _symmetry_equiv_pos_site_id
 _symmetry_equiv_pos_as_xyz
  1  'x, y, z'
loop_
 _atom_site_type_symbol
 _atom_site_label
 _atom_site_symmetry_multiplicity
 _atom_site_fract_x
 _atom_site_fract_y
 _atom_site_fract_z
 _atom_site_occupancy
  Si  Si0  1  0.364007  0.560084  0.062435  1
  Si  Si1  1  0.289131  0.764877  0.436157  1
  Si  Si2  1  0.635993  0.439915  0.562435  1
  Si  Si3  1  0.710869  0.235124  0.936156  1
  O  O4  1  0.601882  0.415255  0.071544  1
  O  O5  1  0.302487  0.647328  0.249357  1
  O  O6  1  0.502353  0.134819  0.444000  1
  O  O7  1  0.946249  0.700538  0.481407  1
  O  O8  1  0.398119  0.584747  0.571544  1
  O  O9  1  0.697513  0.352670  0.749357  1
  O  O10  1  0.497646  0.865181  0.944001  1
  O  O11  1  0.053752  0.299461  0.981407  1
