# generated using pymatgen
data_LiTm3
_symmetry_space_group_name_H-M   'P 1'
_cell_length_a   6.90111192
_cell_length_b   6.90232592
_cell_length_c   5.45575649
_cell_angle_alpha   90.00000000
_cell_angle_beta   90.00000000
_cell_angle_gamma   120.02542837
_symmetry_Int_Tables_number   1
_chemical_formula_structural   LiTm3
_chemical_formula_sum   'Li2 Tm6'
_cell_volume   225.00325711
_cell_formula_units_Z   2
loop_
 _symmetry_equiv_pos_site_id
 _symmetry_equiv_pos_as_xyz
  1  'x, y, z'
loop_
 _atom_site_type_symbol
 _atom_site_label
 _atom_site_symmetry_multiplicity
 _atom_site_fract_x
 _atom_site_fract_y
 _atom_site_fract_z
 _atom_site_occupancy
  Li  Li0  1  0.666669  0.333334  0.249999  1
  Li  Li1  1  0.333332  0.666666  0.750000  1
  Tm  Tm2  1  0.831855  0.168129  0.750000  1
  Tm  Tm3  1  0.336273  0.168144  0.750000  1
  Tm  Tm4  1  0.831846  0.663733  0.750000  1
  Tm  Tm5  1  0.168147  0.831872  0.249999  1
  Tm  Tm6  1  0.663726  0.831856  0.249999  1
  Tm  Tm7  1  0.168155  0.336269  0.249999  1
