# generated using pymatgen
data_SiB
_symmetry_space_group_name_H-M   'P 1'
_cell_length_a   3.17517404
_cell_length_b   3.17517404
_cell_length_c   5.86092938
_cell_angle_alpha   90.00000000
_cell_angle_beta   90.00000000
_cell_angle_gamma   119.99999628
_symmetry_Int_Tables_number   1
_chemical_formula_structural   SiB
_chemical_formula_sum   'Si2 B2'
_cell_volume   51.17197832
_cell_formula_units_Z   2
loop_
 _symmetry_equiv_pos_site_id
 _symmetry_equiv_pos_as_xyz
  1  'x, y, z'
loop_
 _atom_site_type_symbol
 _atom_site_label
 _atom_site_symmetry_multiplicity
 _atom_site_fract_x
 _atom_site_fract_y
 _atom_site_fract_z
 _atom_site_occupancy
  Si  Si0  1  0.000000  0.000000  0.356905  1
  Si  Si1  1  0.333332  0.666668  0.856905  1
  B  B2  1  0.000000  0.000000  0.018094  1
  B  B3  1  0.333332  0.666668  0.518094  1
