# generated using pymatgen
data_NaNdS2
_symmetry_space_group_name_H-M   'P 1'
_cell_length_a   4.12898193
_cell_length_b   4.12898182
_cell_length_c   7.13034534
_cell_angle_alpha   73.16982731
_cell_angle_beta   73.16982473
_cell_angle_gamma   60.00000092
_symmetry_Int_Tables_number   1
_chemical_formula_structural   NaNdS2
_chemical_formula_sum   'Na1 Nd1 S2'
_cell_volume   99.21759966
_cell_formula_units_Z   1
loop_
 _symmetry_equiv_pos_site_id
 _symmetry_equiv_pos_as_xyz
  1  'x, y, z'
loop_
 _atom_site_type_symbol
 _atom_site_label
 _atom_site_symmetry_multiplicity
 _atom_site_fract_x
 _atom_site_fract_y
 _atom_site_fract_z
 _atom_site_occupancy
  Na  Na0  1  0.500000  0.500000  0.500000  1
  Nd  Nd1  1  -0.000000  0.000000  -0.000000  1
  S  S2  1  0.744241  0.744241  0.767276  1
  S  S3  1  0.255759  0.255759  0.232724  1
