# generated using pymatgen
data_SnH4
_symmetry_space_group_name_H-M   'P 1'
_cell_length_a   6.21304103
_cell_length_b   4.05011191
_cell_length_c   4.64417962
_cell_angle_alpha   90.00000000
_cell_angle_beta   87.46642863
_cell_angle_gamma   90.00000000
_symmetry_Int_Tables_number   1
_chemical_formula_structural   SnH4
_chemical_formula_sum   'Sn2 H8'
_cell_volume   116.74963181
_cell_formula_units_Z   2
loop_
 _symmetry_equiv_pos_site_id
 _symmetry_equiv_pos_as_xyz
  1  'x, y, z'
loop_
 _atom_site_type_symbol
 _atom_site_label
 _atom_site_symmetry_multiplicity
 _atom_site_fract_x
 _atom_site_fract_y
 _atom_site_fract_z
 _atom_site_occupancy
  Sn  Sn0  1  0.427752  0.749999  0.260427  1
  Sn  Sn1  1  0.572247  0.250002  0.739568  1
  H  H2  1  0.990334  0.749999  0.129515  1
  H  H3  1  0.869075  0.749999  0.136705  1
  H  H4  1  0.067452  0.250002  0.365282  1
  H  H5  1  0.945379  0.250002  0.375840  1
  H  H6  1  0.054623  0.749999  0.624163  1
  H  H7  1  0.932545  0.749999  0.634717  1
  H  H8  1  0.130927  0.250002  0.863299  1
  H  H9  1  0.009665  0.250002  0.870488  1
