# generated using pymatgen
data_HoBr3
_symmetry_space_group_name_H-M   'P 1'
_cell_length_a   10.15962792
_cell_length_b   10.15962638
_cell_length_c   3.74022035
_cell_angle_alpha   90.00000000
_cell_angle_beta   90.00000000
_cell_angle_gamma   119.99999967
_symmetry_Int_Tables_number   1
_chemical_formula_structural   HoBr3
_chemical_formula_sum   'Ho2 Br6'
_cell_volume   334.33616904
_cell_formula_units_Z   2
loop_
 _symmetry_equiv_pos_site_id
 _symmetry_equiv_pos_as_xyz
  1  'x, y, z'
loop_
 _atom_site_type_symbol
 _atom_site_label
 _atom_site_symmetry_multiplicity
 _atom_site_fract_x
 _atom_site_fract_y
 _atom_site_fract_z
 _atom_site_occupancy
  Ho  Ho0  1  0.333334  0.666667  0.750000  1
  Ho  Ho1  1  0.666667  0.333334  0.250001  1
  Br  Br2  1  0.212567  0.425134  0.250001  1
  Br  Br3  1  0.574866  0.787433  0.250001  1
  Br  Br4  1  0.212568  0.787433  0.250001  1
  Br  Br5  1  0.787432  0.574866  0.750000  1
  Br  Br6  1  0.425135  0.212569  0.750000  1
  Br  Br7  1  0.787433  0.212569  0.750000  1
