# generated using pymatgen
data_Al2Cu
_symmetry_space_group_name_H-M   'P 1'
_cell_length_a   4.89328456
_cell_length_b   4.89328510
_cell_length_c   4.93272661
_cell_angle_alpha   104.44841214
_cell_angle_beta   104.44841394
_cell_angle_gamma   119.79915817
_symmetry_Int_Tables_number   1
_chemical_formula_structural   Al2Cu
_chemical_formula_sum   'Al4 Cu2'
_cell_volume   88.90854700
_cell_formula_units_Z   2
loop_
 _symmetry_equiv_pos_site_id
 _symmetry_equiv_pos_as_xyz
  1  'x, y, z'
loop_
 _atom_site_type_symbol
 _atom_site_label
 _atom_site_symmetry_multiplicity
 _atom_site_fract_x
 _atom_site_fract_y
 _atom_site_fract_z
 _atom_site_occupancy
  Al  Al0  1  0.158864  0.841136  1.000000  1
  Al  Al1  1  0.342365  0.342365  0.684730  1
  Al  Al2  1  0.841136  0.158864  0.000000  1
  Al  Al3  1  0.657635  0.657635  0.315270  1
  Cu  Cu4  1  0.750000  0.250000  0.500000  1
  Cu  Cu5  1  0.250000  0.750000  0.500000  1
