# generated using pymatgen
data_SiHg3
_symmetry_space_group_name_H-M   'P 1'
_cell_length_a   6.47832186
_cell_length_b   6.47832145
_cell_length_c   5.08651668
_cell_angle_alpha   90.00000000
_cell_angle_beta   90.00000000
_cell_angle_gamma   119.99999678
_symmetry_Int_Tables_number   1
_chemical_formula_structural   SiHg3
_chemical_formula_sum   'Si2 Hg6'
_cell_volume   184.87412595
_cell_formula_units_Z   2
loop_
 _symmetry_equiv_pos_site_id
 _symmetry_equiv_pos_as_xyz
  1  'x, y, z'
loop_
 _atom_site_type_symbol
 _atom_site_label
 _atom_site_symmetry_multiplicity
 _atom_site_fract_x
 _atom_site_fract_y
 _atom_site_fract_z
 _atom_site_occupancy
  Si  Si0  1  0.333334  0.666668  0.749998  1
  Si  Si1  1  0.666667  0.333333  0.249999  1
  Hg  Hg2  1  0.170385  0.340771  0.249999  1
  Hg  Hg3  1  0.659228  0.829614  0.249999  1
  Hg  Hg4  1  0.170386  0.829614  0.249999  1
  Hg  Hg5  1  0.829615  0.659229  0.749998  1
  Hg  Hg6  1  0.340771  0.170385  0.749998  1
  Hg  Hg7  1  0.829615  0.170385  0.749998  1
