# generated using pymatgen
data_TaMnAs
_symmetry_space_group_name_H-M   'P 1'
_cell_length_a   4.28710580
_cell_length_b   4.28710688
_cell_length_c   4.28710624
_cell_angle_alpha   60.00000948
_cell_angle_beta   60.00001535
_cell_angle_gamma   60.00004101
_symmetry_Int_Tables_number   1
_chemical_formula_structural   TaMnAs
_chemical_formula_sum   'Ta1 Mn1 As1'
_cell_volume   55.71574937
_cell_formula_units_Z   1
loop_
 _symmetry_equiv_pos_site_id
 _symmetry_equiv_pos_as_xyz
  1  'x, y, z'
loop_
 _atom_site_type_symbol
 _atom_site_label
 _atom_site_symmetry_multiplicity
 _atom_site_fract_x
 _atom_site_fract_y
 _atom_site_fract_z
 _atom_site_occupancy
  Ta  Ta0  1  0.249999  0.250001  0.250000  1
  Mn  Mn1  1  0.500001  0.499999  0.500000  1
  As  As2  1  -0.000001  0.000001  0.000000  1
