# generated using pymatgen
data_NaLuS2
_symmetry_space_group_name_H-M   'P 1'
_cell_length_a   7.03845774
_cell_length_b   7.03845773
_cell_length_c   7.03845774
_cell_angle_alpha   32.18657423
_cell_angle_beta   32.18657428
_cell_angle_gamma   32.18657423
_symmetry_Int_Tables_number   1
_chemical_formula_structural   NaLuS2
_chemical_formula_sum   'Na1 Lu1 S2'
_cell_volume   87.93146861
_cell_formula_units_Z   1
loop_
 _symmetry_equiv_pos_site_id
 _symmetry_equiv_pos_as_xyz
  1  'x, y, z'
loop_
 _atom_site_type_symbol
 _atom_site_label
 _atom_site_symmetry_multiplicity
 _atom_site_fract_x
 _atom_site_fract_y
 _atom_site_fract_z
 _atom_site_occupancy
  Na  Na0  1  0.500000  0.500000  0.500000  1
  S  S1  1  0.259210  0.259210  0.259210  1
  S  S2  1  0.740790  0.740790  0.740790  1
  Lu  Lu3  1  0.000000  0.000000  0.000000  1
