# generated using pymatgen
data_SnGe
_symmetry_space_group_name_H-M   'P 1'
_cell_length_a   4.36362135
_cell_length_b   4.36361999
_cell_length_c   12.58619825
_cell_angle_alpha   90.00091956
_cell_angle_beta   90.00000001
_cell_angle_gamma   119.99997985
_symmetry_Int_Tables_number   1
_chemical_formula_structural   SnGe
_chemical_formula_sum   'Sn1 Ge1'
_cell_volume   207.54834222
_cell_formula_units_Z   1
loop_
 _symmetry_equiv_pos_site_id
 _symmetry_equiv_pos_as_xyz
  1  'x, y, z'
loop_
 _atom_site_type_symbol
 _atom_site_label
 _atom_site_symmetry_multiplicity
 _atom_site_fract_x
 _atom_site_fract_y
 _atom_site_fract_z
 _atom_site_occupancy
  Sn  Sn0  1  0.666632  0.333333  0.481921  1
  Ge  Ge1  1  0.999968  0.000007  0.543079  1
