# generated using pymatgen
data_TmSi3
_symmetry_space_group_name_H-M   'P 1'
_cell_length_a   4.10593566
_cell_length_b   4.10593692
_cell_length_c   4.10592896
_cell_angle_alpha   90.00002302
_cell_angle_beta   89.99992646
_cell_angle_gamma   89.99991041
_symmetry_Int_Tables_number   1
_chemical_formula_structural   TmSi3
_chemical_formula_sum   'Tm1 Si3'
_cell_volume   69.22067719
_cell_formula_units_Z   1
loop_
 _symmetry_equiv_pos_site_id
 _symmetry_equiv_pos_as_xyz
  1  'x, y, z'
loop_
 _atom_site_type_symbol
 _atom_site_label
 _atom_site_symmetry_multiplicity
 _atom_site_fract_x
 _atom_site_fract_y
 _atom_site_fract_z
 _atom_site_occupancy
  Tm  Tm0  1  0.999996  0.999995  0.999999  1
  Si  Si1  1  0.000001  0.500002  0.500000  1
  Si  Si2  1  0.500001  0.000002  0.500000  1
  Si  Si3  1  0.500001  0.500002  0.000000  1
