# generated using pymatgen
data_Tm2Fe2Si2C
_symmetry_space_group_name_H-M   'P 1'
_cell_length_a   3.89115839
_cell_length_b   5.58711371
_cell_length_c   5.58693690
_cell_angle_alpha   72.99641803
_cell_angle_beta   69.62046852
_cell_angle_gamma   69.62114209
_symmetry_Int_Tables_number   1
_chemical_formula_structural   Tm2Fe2Si2C
_chemical_formula_sum   'Tm2 Fe2 Si2 C1'
_cell_volume   104.68840562
_cell_formula_units_Z   1
loop_
 _symmetry_equiv_pos_site_id
 _symmetry_equiv_pos_as_xyz
  1  'x, y, z'
loop_
 _atom_site_type_symbol
 _atom_site_label
 _atom_site_symmetry_multiplicity
 _atom_site_fract_x
 _atom_site_fract_y
 _atom_site_fract_z
 _atom_site_occupancy
  C  C0  1  0.000000  0.000000  0.000000  1
  Si  Si1  1  0.158899  0.393040  0.289162  1
  Si  Si2  1  0.841101  0.606960  0.710838  1
  Fe  Fe3  1  0.202451  0.692952  0.902146  1
  Fe  Fe4  1  0.797549  0.307048  0.097854  1
  Tm  Tm5  1  0.559030  0.174333  0.707607  1
  Tm  Tm6  1  0.440970  0.825667  0.292393  1
