# generated using pymatgen
data_LiScSi
_symmetry_space_group_name_H-M   'P 1'
_cell_length_a   4.46833929
_cell_length_b   4.46833918
_cell_length_c   4.46833995
_cell_angle_alpha   60.00000242
_cell_angle_beta   60.00000332
_cell_angle_gamma   60.00000140
_symmetry_Int_Tables_number   1
_chemical_formula_structural   LiScSi
_chemical_formula_sum   'Li1 Sc1 Si1'
_cell_volume   63.08462225
_cell_formula_units_Z   1
loop_
 _symmetry_equiv_pos_site_id
 _symmetry_equiv_pos_as_xyz
  1  'x, y, z'
loop_
 _atom_site_type_symbol
 _atom_site_label
 _atom_site_symmetry_multiplicity
 _atom_site_fract_x
 _atom_site_fract_y
 _atom_site_fract_z
 _atom_site_occupancy
  Li  Li0  1  0.500000  0.500000  0.500000  1
  Sc  Sc1  1  0.250000  0.250000  0.250000  1
  Si  Si2  1  0.000000  0.000000  0.000000  1
