# generated using pymatgen
data_TiAsRh
_symmetry_space_group_name_H-M   'P 1'
_cell_length_a   4.21527287
_cell_length_b   4.21527559
_cell_length_c   4.21522448
_cell_angle_alpha   59.99950051
_cell_angle_beta   60.00015401
_cell_angle_gamma   60.00009334
_symmetry_Int_Tables_number   1
_chemical_formula_structural   TiAsRh
_chemical_formula_sum   'Ti1 As1 Rh1'
_cell_volume   52.96104547
_cell_formula_units_Z   1
loop_
 _symmetry_equiv_pos_site_id
 _symmetry_equiv_pos_as_xyz
  1  'x, y, z'
loop_
 _atom_site_type_symbol
 _atom_site_label
 _atom_site_symmetry_multiplicity
 _atom_site_fract_x
 _atom_site_fract_y
 _atom_site_fract_z
 _atom_site_occupancy
  Ti  Ti0  1  0.249996  0.250003  0.250002  1
  As  As1  1  0.000002  1.000000  0.000002  1
  Rh  Rh2  1  0.500002  0.499998  0.499996  1
