# generated using pymatgen
data_CO3
_symmetry_space_group_name_H-M   'P 1'
_cell_length_a   4.40139526
_cell_length_b   4.40139526
_cell_length_c   4.40139526
_cell_angle_alpha   73.24291108
_cell_angle_beta   69.15490398
_cell_angle_gamma   110.84509602
_symmetry_Int_Tables_number   1
_chemical_formula_structural   CO3
_chemical_formula_sum   'C2 O6'
_cell_volume   65.52727044
_cell_formula_units_Z   2
loop_
 _symmetry_equiv_pos_site_id
 _symmetry_equiv_pos_as_xyz
  1  'x, y, z'
loop_
 _atom_site_type_symbol
 _atom_site_label
 _atom_site_symmetry_multiplicity
 _atom_site_fract_x
 _atom_site_fract_y
 _atom_site_fract_z
 _atom_site_occupancy
  C  C0  1  -0.000000  0.750000  0.250000  1
  C  C1  1  -0.000000  0.250000  0.750000  1
  O  O2  1  0.500000  -0.000000  0.500000  1
  O  O3  1  0.500000  0.500000  0.000000  1
  O  O4  1  0.500000  0.249279  0.749279  1
  O  O5  1  0.500000  0.750721  0.250721  1
  O  O6  1  0.998558  0.749279  0.750721  1
  O  O7  1  0.001442  0.250721  0.249279  1
