# generated using pymatgen
data_TiS2
_symmetry_space_group_name_H-M   'P 1'
_cell_length_a   6.93258082
_cell_length_b   6.94124493
_cell_length_c   6.94124566
_cell_angle_alpha   60.00000099
_cell_angle_beta   59.95864620
_cell_angle_gamma   59.95864069
_symmetry_Int_Tables_number   1
_chemical_formula_structural   TiS2
_chemical_formula_sum   'Ti4 S8'
_cell_volume   236.03856646
_cell_formula_units_Z   4
loop_
 _symmetry_equiv_pos_site_id
 _symmetry_equiv_pos_as_xyz
  1  'x, y, z'
loop_
 _atom_site_type_symbol
 _atom_site_label
 _atom_site_symmetry_multiplicity
 _atom_site_fract_x
 _atom_site_fract_y
 _atom_site_fract_z
 _atom_site_occupancy
  Ti  Ti0  1  0.000000  0.500000  0.500000  1
  Ti  Ti1  1  0.500000  0.500000  0.000000  1
  Ti  Ti2  1  0.500000  0.500000  0.500000  1
  Ti  Ti3  1  0.500000  0.000000  0.500000  1
  S  S4  1  0.742484  0.252505  0.252505  1
  S  S5  1  0.257516  0.747495  0.747495  1
  S  S6  1  0.251641  0.252552  0.252552  1
  S  S7  1  0.251641  0.252552  0.743255  1
  S  S8  1  0.251641  0.743255  0.252552  1
  S  S9  1  0.748359  0.747448  0.256745  1
  S  S10  1  0.748359  0.256745  0.747448  1
  S  S11  1  0.748359  0.747448  0.747448  1
