# generated using pymatgen
data_MgFe2O5
_symmetry_space_group_name_H-M   'P 1'
_cell_length_a   3.32127979
_cell_length_b   5.04169793
_cell_length_c   11.60038279
_cell_angle_alpha   90.02107662
_cell_angle_beta   90.00008926
_cell_angle_gamma   90.00003096
_symmetry_Int_Tables_number   1
_chemical_formula_structural   MgFe2O5
_chemical_formula_sum   'Mg2 Fe4 O10'
_cell_volume   194.24711439
_cell_formula_units_Z   2
loop_
 _symmetry_equiv_pos_site_id
 _symmetry_equiv_pos_as_xyz
  1  'x, y, z'
loop_
 _atom_site_type_symbol
 _atom_site_label
 _atom_site_symmetry_multiplicity
 _atom_site_fract_x
 _atom_site_fract_y
 _atom_site_fract_z
 _atom_site_occupancy
  Mg  Mg0  1  0.749999  0.867244  0.249814  1
  Mg  Mg1  1  0.249999  0.132722  0.750068  1
  Fe  Fe2  1  0.249999  0.417210  0.101660  1
  Fe  Fe3  1  0.750000  0.582957  0.898367  1
  Fe  Fe4  1  0.750001  0.582628  0.601712  1
  Fe  Fe5  1  0.249998  0.417211  0.398305  1
  O  O6  1  0.750000  0.417680  0.749991  1
  O  O7  1  0.249998  0.582335  0.250028  1
  O  O8  1  0.750001  0.613661  0.069845  1
  O  O9  1  0.250000  0.386559  0.930241  1
  O  O10  1  0.749999  0.613461  0.430340  1
  O  O11  1  0.249999  0.386303  0.569728  1
  O  O12  1  0.250001  0.074067  0.342726  1
  O  O13  1  0.749999  0.925829  0.657219  1
  O  O14  1  0.750000  0.926083  0.842829  1
  O  O15  1  0.250001  0.074052  0.157127  1
