# generated using pymatgen
data_BiS2
_symmetry_space_group_name_H-M   'P 1'
_cell_length_a   6.71334853
_cell_length_b   6.71390822
_cell_length_c   6.89541978
_cell_angle_alpha   119.13230286
_cell_angle_beta   119.13030896
_cell_angle_gamma   89.99999135
_symmetry_Int_Tables_number   1
_chemical_formula_structural   BiS2
_chemical_formula_sum   'Bi2 S4'
_cell_volume   225.41314683
_cell_formula_units_Z   2
loop_
 _symmetry_equiv_pos_site_id
 _symmetry_equiv_pos_as_xyz
  1  'x, y, z'
loop_
 _atom_site_type_symbol
 _atom_site_label
 _atom_site_symmetry_multiplicity
 _atom_site_fract_x
 _atom_site_fract_y
 _atom_site_fract_z
 _atom_site_occupancy
  Bi  Bi0  1  0.250017  0.750054  0.500033  1
  Bi  Bi1  1  -0.000016  -0.000054  -0.000033  1
  S  S2  1  0.891130  0.875000  0.250000  1
  S  S3  1  0.624975  0.108866  0.749984  1
  S  S4  1  0.358902  0.375000  0.250000  1
  S  S5  1  0.124992  0.641134  0.750016  1
