# generated using pymatgen
data_VN
_symmetry_space_group_name_H-M   'P 1'
_cell_length_a   2.93903566
_cell_length_b   2.88520534
_cell_length_c   4.13732486
_cell_angle_alpha   90.11316647
_cell_angle_beta   91.49382167
_cell_angle_gamma   89.83353422
_symmetry_Int_Tables_number   1
_chemical_formula_structural   VN
_chemical_formula_sum   'V2 N2'
_cell_volume   35.07122732
_cell_formula_units_Z   2
loop_
 _symmetry_equiv_pos_site_id
 _symmetry_equiv_pos_as_xyz
  1  'x, y, z'
loop_
 _atom_site_type_symbol
 _atom_site_label
 _atom_site_symmetry_multiplicity
 _atom_site_fract_x
 _atom_site_fract_y
 _atom_site_fract_z
 _atom_site_occupancy
  V  V0  1  0.418251  0.877758  0.020527  1
  V  V1  1  0.829797  0.374632  0.476403  1
  N  N2  1  0.345825  0.875185  0.512277  1
  N  N3  1  0.902213  0.377210  0.984656  1
