# generated using pymatgen
data_MgV2O5
_symmetry_space_group_name_H-M   'P 1'
_cell_length_a   3.45186866
_cell_length_b   4.90981886
_cell_length_c   11.57258801
_cell_angle_alpha   89.99922492
_cell_angle_beta   89.99998890
_cell_angle_gamma   90.00009086
_symmetry_Int_Tables_number   1
_chemical_formula_structural   MgV2O5
_chemical_formula_sum   'Mg2 V4 O10'
_cell_volume   196.13279847
_cell_formula_units_Z   2
loop_
 _symmetry_equiv_pos_site_id
 _symmetry_equiv_pos_as_xyz
  1  'x, y, z'
loop_
 _atom_site_type_symbol
 _atom_site_label
 _atom_site_symmetry_multiplicity
 _atom_site_fract_x
 _atom_site_fract_y
 _atom_site_fract_z
 _atom_site_occupancy
  Mg  Mg0  1  0.749998  0.819794  0.249998  1
  Mg  Mg1  1  0.249997  0.180224  0.750014  1
  V  V2  1  0.249997  0.391188  0.099118  1
  V  V3  1  0.750002  0.608804  0.900883  1
  V  V4  1  0.750000  0.608799  0.599115  1
  V  V5  1  0.250001  0.391208  0.400883  1
  O  O6  1  0.749999  0.426775  0.750003  1
  O  O7  1  0.250000  0.573228  0.249995  1
  O  O8  1  0.750000  0.562877  0.075329  1
  O  O9  1  0.249999  0.437126  0.924670  1
  O  O10  1  0.750000  0.562868  0.424666  1
  O  O11  1  0.249999  0.437115  0.575328  1
  O  O12  1  0.250000  0.056954  0.365954  1
  O  O13  1  0.750000  0.943040  0.634039  1
  O  O14  1  0.750002  0.943054  0.865946  1
  O  O15  1  0.249999  0.056944  0.134056  1
