# generated using pymatgen
data_Ba2TlBi2O7
_symmetry_space_group_name_H-M   'P 1'
_cell_length_a   3.93994378
_cell_length_b   3.93778759
_cell_length_c   15.65556036
_cell_angle_alpha   90.00083001
_cell_angle_beta   89.97875383
_cell_angle_gamma   90.09219423
_symmetry_Int_Tables_number   1
_chemical_formula_structural   Ba2TlBi2O7
_chemical_formula_sum   'Ba2 Tl1 Bi2 O7'
_cell_volume   242.89039196
_cell_formula_units_Z   1
loop_
 _symmetry_equiv_pos_site_id
 _symmetry_equiv_pos_as_xyz
  1  'x, y, z'
loop_
 _atom_site_type_symbol
 _atom_site_label
 _atom_site_symmetry_multiplicity
 _atom_site_fract_x
 _atom_site_fract_y
 _atom_site_fract_z
 _atom_site_occupancy
  Ba  Ba0  1  -0.000005  0.000133  0.678852  1
  Ba  Ba1  1  0.999805  0.999863  0.321241  1
  Tl  Tl2  1  0.498131  0.500049  0.500273  1
  Bi  Bi3  1  0.499825  0.500115  0.867690  1
  Bi  Bi4  1  0.500078  0.499882  0.132136  1
  O  O5  1  0.002641  0.999962  0.499967  1
  O  O6  1  0.499897  0.000093  0.806214  1
  O  O7  1  0.999944  0.500004  0.806346  1
  O  O8  1  0.499983  0.999899  0.193860  1
  O  O9  1  0.999949  0.500005  0.193717  1
  O  O10  1  0.499960  0.500301  0.629771  1
  O  O11  1  0.499788  0.499695  0.369899  1
