# generated using pymatgen
data_Ti(BiO3)2
_symmetry_space_group_name_H-M   'P 1'
_cell_length_a   4.86495302
_cell_length_b   5.37643035
_cell_length_c   5.37643795
_cell_angle_alpha   89.99997645
_cell_angle_beta   89.99982540
_cell_angle_gamma   89.99990467
_symmetry_Int_Tables_number   1
_chemical_formula_structural   Ti(BiO3)2
_chemical_formula_sum   'Ti1 Bi2 O6'
_cell_volume   140.62654688
_cell_formula_units_Z   1
loop_
 _symmetry_equiv_pos_site_id
 _symmetry_equiv_pos_as_xyz
  1  'x, y, z'
loop_
 _atom_site_type_symbol
 _atom_site_label
 _atom_site_symmetry_multiplicity
 _atom_site_fract_x
 _atom_site_fract_y
 _atom_site_fract_z
 _atom_site_occupancy
  Ti  Ti0  1  0.595114  0.500000  0.500000  1
  Bi  Bi1  1  0.983517  0.999998  0.499999  1
  Bi  Bi2  1  0.983515  0.500000  0.000000  1
  O  O3  1  0.736220  0.739037  0.739036  1
  O  O4  1  0.736220  0.739037  0.260964  1
  O  O5  1  0.162253  0.000000  -0.000000  1
  O  O6  1  0.224806  0.500000  0.499999  1
  O  O7  1  0.736220  0.260964  0.260964  1
  O  O8  1  0.736220  0.260962  0.739037  1
