# generated using pymatgen
data_BiO2
_symmetry_space_group_name_H-M   'P 1'
_cell_length_a   6.28419955
_cell_length_b   6.28424063
_cell_length_c   7.11816708
_cell_angle_alpha   55.49769207
_cell_angle_beta   55.49828210
_cell_angle_gamma   71.50361794
_symmetry_Int_Tables_number   1
_chemical_formula_structural   BiO2
_chemical_formula_sum   'Bi4 O8'
_cell_volume   190.91114955
_cell_formula_units_Z   4
loop_
 _symmetry_equiv_pos_site_id
 _symmetry_equiv_pos_as_xyz
  1  'x, y, z'
loop_
 _atom_site_type_symbol
 _atom_site_label
 _atom_site_symmetry_multiplicity
 _atom_site_fract_x
 _atom_site_fract_y
 _atom_site_fract_z
 _atom_site_occupancy
  Bi  Bi0  1  0.118493  0.118512  0.881380  1
  Bi  Bi1  1  0.131507  0.131488  0.368620  1
  Bi  Bi2  1  0.625000  0.625000  0.125000  1
  Bi  Bi3  1  0.625000  0.625000  0.625000  1
  O  O4  1  0.318192  0.318193  0.438848  1
  O  O5  1  0.443441  0.823829  0.366457  1
  O  O6  1  0.318232  0.318229  0.924719  1
  O  O7  1  0.823824  0.443446  0.366454  1
  O  O8  1  0.426176  0.806554  0.883546  1
  O  O9  1  0.806559  0.426171  0.883543  1
  O  O10  1  0.931768  0.931771  0.325281  1
  O  O11  1  0.931808  0.931807  0.811152  1
