# generated using pymatgen
data_Li2NiO2
_symmetry_space_group_name_H-M   'P 1'
_cell_length_a   2.82299081
_cell_length_b   3.74860955
_cell_length_c   5.14054335
_cell_angle_alpha   111.19723835
_cell_angle_beta   105.89018666
_cell_angle_gamma   90.05372923
_symmetry_Int_Tables_number   1
_chemical_formula_structural   Li2NiO2
_chemical_formula_sum   'Li2 Ni1 O2'
_cell_volume   48.47625735
_cell_formula_units_Z   1
loop_
 _symmetry_equiv_pos_site_id
 _symmetry_equiv_pos_as_xyz
  1  'x, y, z'
loop_
 _atom_site_type_symbol
 _atom_site_label
 _atom_site_symmetry_multiplicity
 _atom_site_fract_x
 _atom_site_fract_y
 _atom_site_fract_z
 _atom_site_occupancy
  Li  Li0  1  0.295721  0.795243  0.591400  1
  Li  Li1  1  0.704235  0.204781  0.408608  1
  O  O2  1  0.357552  0.357232  0.716274  1
  O  O3  1  0.642487  0.642790  0.283720  1
  Ni  Ni4  1  0.000003  0.499954  0.999997  1
