# generated using pymatgen
data_Zr2Fe
_symmetry_space_group_name_H-M   'P 1'
_cell_length_a   5.28274519
_cell_length_b   5.28274520
_cell_length_c   5.28274519
_cell_angle_alpha   107.18868395
_cell_angle_beta   107.18868398
_cell_angle_gamma   114.13959888
_symmetry_Int_Tables_number   1
_chemical_formula_structural   Zr2Fe
_chemical_formula_sum   'Zr4 Fe2'
_cell_volume   112.92003898
_cell_formula_units_Z   2
loop_
 _symmetry_equiv_pos_site_id
 _symmetry_equiv_pos_as_xyz
  1  'x, y, z'
loop_
 _atom_site_type_symbol
 _atom_site_label
 _atom_site_symmetry_multiplicity
 _atom_site_fract_x
 _atom_site_fract_y
 _atom_site_fract_z
 _atom_site_occupancy
  Fe  Fe0  1  0.250000  0.250000  0.000000  1
  Fe  Fe1  1  0.750000  0.750000  0.000000  1
  Zr  Zr2  1  0.679530  0.179530  0.859059  1
  Zr  Zr3  1  0.179530  0.320470  0.500000  1
  Zr  Zr4  1  0.820470  0.679530  0.500000  1
  Zr  Zr5  1  0.320470  0.820470  0.140941  1
