# generated using pymatgen
data_CaMoO4
_symmetry_space_group_name_H-M   'P 1'
_cell_length_a   5.31025364
_cell_length_b   5.31290381
_cell_length_c   6.89294453
_cell_angle_alpha   112.66293359
_cell_angle_beta   112.65099552
_cell_angle_gamma   90.01159591
_symmetry_Int_Tables_number   1
_chemical_formula_structural   CaMoO4
_chemical_formula_sum   'Ca2 Mo2 O8'
_cell_volume   163.07208520
_cell_formula_units_Z   2
loop_
 _symmetry_equiv_pos_site_id
 _symmetry_equiv_pos_as_xyz
  1  'x, y, z'
loop_
 _atom_site_type_symbol
 _atom_site_label
 _atom_site_symmetry_multiplicity
 _atom_site_fract_x
 _atom_site_fract_y
 _atom_site_fract_z
 _atom_site_occupancy
  O  O0  1  0.203520  0.060557  0.420204  1
  O  O1  1  0.716684  0.359646  0.420203  1
  O  O2  1  0.796481  0.939442  0.579796  1
  O  O3  1  0.283315  0.640353  0.579796  1
  O  O4  1  0.939919  0.283347  0.080007  1
  O  O5  1  0.640087  0.796660  0.080007  1
  O  O6  1  0.359912  0.203341  0.919994  1
  O  O7  1  0.060080  0.716652  0.919992  1
  Ca  Ca8  1  0.625175  0.375175  0.750350  1
  Ca  Ca9  1  0.374826  0.624824  0.249650  1
  Mo  Mo10  1  0.125039  0.875038  0.750079  1
  Mo  Mo11  1  0.874960  0.124961  0.249921  1
