# generated using pymatgen
data_SiRu2
_symmetry_space_group_name_H-M   'P 1'
_cell_length_a   4.03772056
_cell_length_b   5.32648849
_cell_length_c   7.45200858
_cell_angle_alpha   90.00000000
_cell_angle_beta   90.00000000
_cell_angle_gamma   90.00000000
_symmetry_Int_Tables_number   1
_chemical_formula_structural   SiRu2
_chemical_formula_sum   'Si4 Ru8'
_cell_volume   160.26939533
_cell_formula_units_Z   4
loop_
 _symmetry_equiv_pos_site_id
 _symmetry_equiv_pos_as_xyz
  1  'x, y, z'
loop_
 _atom_site_type_symbol
 _atom_site_label
 _atom_site_symmetry_multiplicity
 _atom_site_fract_x
 _atom_site_fract_y
 _atom_site_fract_z
 _atom_site_occupancy
  Si  Si0  1  0.250000  0.798334  0.401651  1
  Si  Si1  1  0.750000  0.201666  0.598349  1
  Si  Si2  1  0.250000  0.298334  0.098349  1
  Si  Si3  1  0.750000  0.701666  0.901651  1
  Ru  Ru4  1  0.750000  0.013833  0.288418  1
  Ru  Ru5  1  0.250000  0.986167  0.711582  1
  Ru  Ru6  1  0.750000  0.513833  0.211582  1
  Ru  Ru7  1  0.250000  0.486167  0.788418  1
  Ru  Ru8  1  0.250000  0.334156  0.434792  1
  Ru  Ru9  1  0.750000  0.665844  0.565208  1
  Ru  Ru10  1  0.250000  0.834156  0.065208  1
  Ru  Ru11  1  0.750000  0.165844  0.934792  1
