# generated using pymatgen
data_Co3Se4
_symmetry_space_group_name_H-M   'P 1'
_cell_length_a   3.57165489
_cell_length_b   6.17200483
_cell_length_c   6.36964384
_cell_angle_alpha   121.02860259
_cell_angle_beta   106.28320667
_cell_angle_gamma   89.98344420
_symmetry_Int_Tables_number   1
_chemical_formula_structural   Co3Se4
_chemical_formula_sum   'Co3 Se4'
_cell_volume   113.70619886
_cell_formula_units_Z   1
loop_
 _symmetry_equiv_pos_site_id
 _symmetry_equiv_pos_as_xyz
  1  'x, y, z'
loop_
 _atom_site_type_symbol
 _atom_site_label
 _atom_site_symmetry_multiplicity
 _atom_site_fract_x
 _atom_site_fract_y
 _atom_site_fract_z
 _atom_site_occupancy
  Co  Co0  1  0.238799  0.258526  0.477742  1
  Co  Co1  1  0.500000  0.500000  0.000000  1
  Co  Co2  1  0.761201  0.741474  0.522258  1
  Se  Se3  1  0.866515  0.208292  0.732714  1
  Se  Se4  1  0.133485  0.791708  0.267286  1
  Se  Se5  1  0.622543  0.289210  0.244824  1
  Se  Se6  1  0.377457  0.710790  0.755176  1
