# generated using pymatgen
data_Mn(PtO2)3
_symmetry_space_group_name_H-M   'P 1'
_cell_length_a   3.24220612
_cell_length_b   6.22699331
_cell_length_c   6.22699331
_cell_angle_alpha   109.03653680
_cell_angle_beta   90.00000000
_cell_angle_gamma   90.00000000
_symmetry_Int_Tables_number   1
_chemical_formula_structural   Mn(PtO2)3
_chemical_formula_sum   'Mn1 Pt3 O6'
_cell_volume   118.84256772
_cell_formula_units_Z   1
loop_
 _symmetry_equiv_pos_site_id
 _symmetry_equiv_pos_as_xyz
  1  'x, y, z'
loop_
 _atom_site_type_symbol
 _atom_site_label
 _atom_site_symmetry_multiplicity
 _atom_site_fract_x
 _atom_site_fract_y
 _atom_site_fract_z
 _atom_site_occupancy
  O  O0  1  0.000000  0.917052  0.661625  1
  O  O1  1  0.000000  0.082949  0.338375  1
  O  O2  1  0.000000  0.661625  0.917052  1
  O  O3  1  0.000000  0.338376  0.082949  1
  O  O4  1  0.499999  0.347768  0.652234  1
  O  O5  1  0.499999  0.652233  0.347767  1
  Mn  Mn6  1  0.000000  0.500000  0.500000  1
  Pt  Pt7  1  0.000000  0.000000  0.000000  1
  Pt  Pt8  1  0.499999  0.500000  0.000000  1
  Pt  Pt9  1  0.499999  0.000001  0.500000  1
