# generated using pymatgen
data_SiO2
_symmetry_space_group_name_H-M   'P 1'
_cell_length_a   3.81156250
_cell_length_b   3.80465821
_cell_length_c   3.80521344
_cell_angle_alpha   89.98937907
_cell_angle_beta   90.00156924
_cell_angle_gamma   90.01180177
_symmetry_Int_Tables_number   1
_chemical_formula_structural   SiO2
_chemical_formula_sum   'Si2 O4'
_cell_volume   55.18203329
_cell_formula_units_Z   2
loop_
 _symmetry_equiv_pos_site_id
 _symmetry_equiv_pos_as_xyz
  1  'x, y, z'
loop_
 _atom_site_type_symbol
 _atom_site_label
 _atom_site_symmetry_multiplicity
 _atom_site_fract_x
 _atom_site_fract_y
 _atom_site_fract_z
 _atom_site_occupancy
  Si  Si0  1  0.809480  0.111270  0.918284  1
  Si  Si1  1  0.309261  0.611298  0.418479  1
  O  O2  1  0.558245  0.861884  0.668891  1
  O  O3  1  0.059415  0.860603  0.167566  1
  O  O4  1  0.560451  0.361799  0.169002  1
  O  O5  1  0.059261  0.360686  0.667758  1
