# generated using pymatgen
data_Al3Pd5
_symmetry_space_group_name_H-M   'P 1'
_cell_length_a   4.08116160
_cell_length_b   5.43630544
_cell_length_c   10.61435547
_cell_angle_alpha   90.00000000
_cell_angle_beta   90.00000000
_cell_angle_gamma   90.00000000
_symmetry_Int_Tables_number   1
_chemical_formula_structural   Al3Pd5
_chemical_formula_sum   'Al6 Pd10'
_cell_volume   235.49477147
_cell_formula_units_Z   2
loop_
 _symmetry_equiv_pos_site_id
 _symmetry_equiv_pos_as_xyz
  1  'x, y, z'
loop_
 _atom_site_type_symbol
 _atom_site_label
 _atom_site_symmetry_multiplicity
 _atom_site_fract_x
 _atom_site_fract_y
 _atom_site_fract_z
 _atom_site_occupancy
  Al  Al0  1  0.000000  0.000000  0.000000  1
  Al  Al1  1  0.000000  0.500000  0.500000  1
  Al  Al2  1  0.500000  0.160960  0.357073  1
  Al  Al3  1  0.500000  0.839040  0.642927  1
  Al  Al4  1  0.500000  0.660960  0.142927  1
  Al  Al5  1  0.500000  0.339040  0.857073  1
  Pd  Pd6  1  0.500000  0.186433  0.105512  1
  Pd  Pd7  1  0.500000  0.813567  0.894488  1
  Pd  Pd8  1  0.500000  0.686433  0.394488  1
  Pd  Pd9  1  0.500000  0.313567  0.605512  1
  Pd  Pd10  1  0.000000  0.000000  0.500000  1
  Pd  Pd11  1  0.000000  0.500000  0.000000  1
  Pd  Pd12  1  0.000000  0.903578  0.232596  1
  Pd  Pd13  1  0.000000  0.096422  0.767404  1
  Pd  Pd14  1  0.000000  0.403578  0.267404  1
  Pd  Pd15  1  0.000000  0.596422  0.732596  1
