# generated using pymatgen
data_Sr3IrN3
_symmetry_space_group_name_H-M   'P 1'
_cell_length_a   7.74039242
_cell_length_b   7.74012999
_cell_length_c   5.33544269
_cell_angle_alpha   90.00000000
_cell_angle_beta   90.00000000
_cell_angle_gamma   120.03070363
_symmetry_Int_Tables_number   1
_chemical_formula_structural   Sr3IrN3
_chemical_formula_sum   'Sr6 Ir2 N6'
_cell_volume   276.74378392
_cell_formula_units_Z   2
loop_
 _symmetry_equiv_pos_site_id
 _symmetry_equiv_pos_as_xyz
  1  'x, y, z'
loop_
 _atom_site_type_symbol
 _atom_site_label
 _atom_site_symmetry_multiplicity
 _atom_site_fract_x
 _atom_site_fract_y
 _atom_site_fract_z
 _atom_site_occupancy
  Sr  Sr0  1  0.904166  0.637487  0.250000  1
  Sr  Sr1  1  0.733458  0.095889  0.250000  1
  Sr  Sr2  1  0.362410  0.266690  0.250000  1
  Sr  Sr3  1  0.095834  0.362513  0.750000  1
  Sr  Sr4  1  0.266542  0.904111  0.750000  1
  Sr  Sr5  1  0.637590  0.733310  0.750000  1
  Ir  Ir6  1  0.666791  0.333514  0.750000  1
  Ir  Ir7  1  0.333209  0.666486  0.250000  1
  N  N8  1  0.894957  0.594762  0.750000  1
  N  N9  1  0.699852  0.104893  0.750000  1
  N  N10  1  0.405069  0.300205  0.750000  1
  N  N11  1  0.105043  0.405238  0.250000  1
  N  N12  1  0.300148  0.895107  0.250000  1
  N  N13  1  0.594931  0.699795  0.250000  1
