# generated using pymatgen
data_PW
_symmetry_space_group_name_H-M   'P 1'
_cell_length_a   3.27079091
_cell_length_b   5.75348283
_cell_length_c   6.26520977
_cell_angle_alpha   90.00000000
_cell_angle_beta   90.00000000
_cell_angle_gamma   90.00000000
_symmetry_Int_Tables_number   1
_chemical_formula_structural   PW
_chemical_formula_sum   'P4 W4'
_cell_volume   117.90147002
_cell_formula_units_Z   4
loop_
 _symmetry_equiv_pos_site_id
 _symmetry_equiv_pos_as_xyz
  1  'x, y, z'
loop_
 _atom_site_type_symbol
 _atom_site_label
 _atom_site_symmetry_multiplicity
 _atom_site_fract_x
 _atom_site_fract_y
 _atom_site_fract_z
 _atom_site_occupancy
  P  P0  1  0.750000  0.816123  0.434114  1
  P  P1  1  0.250000  0.183877  0.565886  1
  P  P2  1  0.750000  0.316123  0.065886  1
  P  P3  1  0.250000  0.683877  0.934114  1
  W  W4  1  0.750000  0.986400  0.811606  1
  W  W5  1  0.250000  0.013600  0.188394  1
  W  W6  1  0.750000  0.486400  0.688394  1
  W  W7  1  0.250000  0.513600  0.311606  1
