# generated using pymatgen
data_InP
_symmetry_space_group_name_H-M   'P 1'
_cell_length_a   4.22103609
_cell_length_b   4.20819561
_cell_length_c   4.20819626
_cell_angle_alpha   60.20976201
_cell_angle_beta   59.91530997
_cell_angle_gamma   59.91530765
_symmetry_Int_Tables_number   1
_chemical_formula_structural   InP
_chemical_formula_sum   'In1 P1'
_cell_volume   52.87140063
_cell_formula_units_Z   1
loop_
 _symmetry_equiv_pos_site_id
 _symmetry_equiv_pos_as_xyz
  1  'x, y, z'
loop_
 _atom_site_type_symbol
 _atom_site_label
 _atom_site_symmetry_multiplicity
 _atom_site_fract_x
 _atom_site_fract_y
 _atom_site_fract_z
 _atom_site_occupancy
  In  In0  1  0.250113  0.374965  0.374965  1
  P  P1  1  -0.000113  0.125035  0.125035  1
