# generated using pymatgen
data_ZrNiH3
_symmetry_space_group_name_H-M   'P 1'
_cell_length_a   3.51663366
_cell_length_b   4.33684759
_cell_length_c   5.55206132
_cell_angle_alpha   90.00000000
_cell_angle_beta   108.46324342
_cell_angle_gamma   90.00000000
_symmetry_Int_Tables_number   1
_chemical_formula_structural   ZrNiH3
_chemical_formula_sum   'Zr2 Ni2 H6'
_cell_volume   80.31658769
_cell_formula_units_Z   2
loop_
 _symmetry_equiv_pos_site_id
 _symmetry_equiv_pos_as_xyz
  1  'x, y, z'
loop_
 _atom_site_type_symbol
 _atom_site_label
 _atom_site_symmetry_multiplicity
 _atom_site_fract_x
 _atom_site_fract_y
 _atom_site_fract_z
 _atom_site_occupancy
  Zr  Zr0  1  0.860170  0.750000  0.720340  1
  Zr  Zr1  1  0.139830  0.250000  0.279660  1
  Ni  Ni2  1  0.569195  0.750000  0.138389  1
  Ni  Ni3  1  0.430805  0.250000  0.861611  1
  H  H4  1  0.067252  0.750000  0.134504  1
  H  H5  1  0.932748  0.250000  0.865496  1
  H  H6  1  0.686471  0.002733  0.372943  1
  H  H7  1  0.313529  0.997267  0.627057  1
  H  H8  1  0.686471  0.497267  0.372943  1
  H  H9  1  0.313529  0.502733  0.627057  1
