# generated using pymatgen
data_FeP2
_symmetry_space_group_name_H-M   'P 1'
_cell_length_a   2.72175865
_cell_length_b   4.95981561
_cell_length_c   5.64546987
_cell_angle_alpha   90.00000000
_cell_angle_beta   90.00000000
_cell_angle_gamma   90.00000000
_symmetry_Int_Tables_number   1
_chemical_formula_structural   FeP2
_chemical_formula_sum   'Fe2 P4'
_cell_volume   76.21057474
_cell_formula_units_Z   2
loop_
 _symmetry_equiv_pos_site_id
 _symmetry_equiv_pos_as_xyz
  1  'x, y, z'
loop_
 _atom_site_type_symbol
 _atom_site_label
 _atom_site_symmetry_multiplicity
 _atom_site_fract_x
 _atom_site_fract_y
 _atom_site_fract_z
 _atom_site_occupancy
  P  P0  1  0.500000  0.329514  0.867776  1
  P  P1  1  0.500000  0.670486  0.132224  1
  P  P2  1  0.000000  0.170486  0.367776  1
  P  P3  1  0.000000  0.829514  0.632224  1
  Fe  Fe4  1  0.500000  0.500000  0.500000  1
  Fe  Fe5  1  0.000000  0.000000  0.000000  1
