# generated using pymatgen
data_InI
_symmetry_space_group_name_H-M   'P 1'
_cell_length_a   4.92027370
_cell_length_b   4.86640334
_cell_length_c   6.94894523
_cell_angle_alpha   110.49674092
_cell_angle_beta   90.00000000
_cell_angle_gamma   90.00000000
_symmetry_Int_Tables_number   1
_chemical_formula_structural   InI
_chemical_formula_sum   'In2 I2'
_cell_volume   155.85226329
_cell_formula_units_Z   2
loop_
 _symmetry_equiv_pos_site_id
 _symmetry_equiv_pos_as_xyz
  1  'x, y, z'
loop_
 _atom_site_type_symbol
 _atom_site_label
 _atom_site_symmetry_multiplicity
 _atom_site_fract_x
 _atom_site_fract_y
 _atom_site_fract_z
 _atom_site_occupancy
  In  In0  1  0.250000  0.603667  0.207334  1
  In  In1  1  0.750000  0.396333  0.792666  1
  I  I2  1  0.250000  0.855853  0.711706  1
  I  I3  1  0.750000  0.144147  0.288294  1
