# generated using pymatgen
data_In2O3
_symmetry_space_group_name_H-M   'P 1'
_cell_length_a   8.91892259
_cell_length_b   8.91942941
_cell_length_c   8.91976224
_cell_angle_alpha   109.46489972
_cell_angle_beta   109.47109833
_cell_angle_gamma   109.46234783
_symmetry_Int_Tables_number   1
_chemical_formula_structural   In2O3
_chemical_formula_sum   'In16 O24'
_cell_volume   546.33989675
_cell_formula_units_Z   8
loop_
 _symmetry_equiv_pos_site_id
 _symmetry_equiv_pos_as_xyz
  1  'x, y, z'
loop_
 _atom_site_type_symbol
 _atom_site_label
 _atom_site_symmetry_multiplicity
 _atom_site_fract_x
 _atom_site_fract_y
 _atom_site_fract_z
 _atom_site_occupancy
  In  In0  1  0.750030  0.284518  0.534539  1
  In  In1  1  0.249955  0.716174  0.466077  1
  In  In2  1  -0.000018  0.000101  0.499931  1
  In  In3  1  0.500095  0.000012  0.000227  1
  In  In4  1  0.534500  0.749958  0.284516  1
  In  In5  1  0.466138  0.250015  0.716172  1
  In  In6  1  0.749972  0.783858  0.033856  1
  In  In7  1  0.250004  0.215446  0.965565  1
  In  In8  1  0.284460  0.534442  0.749983  1
  In  In9  1  0.033852  0.749906  0.783802  1
  In  In10  1  0.999977  0.500047  0.000024  1
  In  In11  1  0.499881  0.499923  0.499903  1
  In  In12  1  0.965472  0.250042  0.215453  1
  In  In13  1  0.716085  0.466104  0.249989  1
  In  In14  1  0.215561  0.965624  0.249968  1
  In  In15  1  0.783878  0.033802  0.750017  1
  O  O16  1  0.544896  0.536679  0.772065  1
  O  O17  1  0.536699  0.772050  0.544849  1
  O  O18  1  0.963308  0.508366  0.235453  1
  O  O19  1  0.264606  0.772760  0.727914  1
  O  O20  1  0.463049  0.227607  0.455712  1
  O  O21  1  0.044343  0.271911  0.007349  1
  O  O22  1  0.227498  0.455614  0.462880  1
  O  O23  1  0.991873  0.955212  0.727320  1
  O  O24  1  0.272357  0.735282  0.228019  1
  O  O25  1  0.235581  0.963521  0.508173  1
  O  O26  1  0.508266  0.235394  0.963399  1
  O  O27  1  0.007103  0.044244  0.271762  1
  O  O28  1  0.764508  0.037012  0.492682  1
  O  O29  1  0.955257  0.727426  0.991864  1
  O  O30  1  0.228108  0.272343  0.735360  1
  O  O31  1  0.727183  0.991763  0.955118  1
  O  O32  1  0.772876  0.727956  0.264654  1
  O  O33  1  0.727929  0.264588  0.772934  1
  O  O34  1  0.735432  0.228196  0.272481  1
  O  O35  1  0.036920  0.492596  0.764547  1
  O  O36  1  0.271960  0.007166  0.044282  1
  O  O37  1  0.492692  0.764533  0.037042  1
  O  O38  1  0.772092  0.544944  0.536606  1
  O  O39  1  0.455621  0.462865  0.227515  1
