# generated using pymatgen
data_Zr3Fe
_symmetry_space_group_name_H-M   'P 1'
_cell_length_a   3.29707058
_cell_length_b   5.69736193
_cell_length_c   8.93829330
_cell_angle_alpha   90.00000000
_cell_angle_beta   90.00000000
_cell_angle_gamma   106.81908345
_symmetry_Int_Tables_number   1
_chemical_formula_structural   Zr3Fe
_chemical_formula_sum   'Zr6 Fe2'
_cell_volume   160.71997664
_cell_formula_units_Z   2
loop_
 _symmetry_equiv_pos_site_id
 _symmetry_equiv_pos_as_xyz
  1  'x, y, z'
loop_
 _atom_site_type_symbol
 _atom_site_label
 _atom_site_symmetry_multiplicity
 _atom_site_fract_x
 _atom_site_fract_y
 _atom_site_fract_z
 _atom_site_occupancy
  Fe  Fe0  1  0.732250  0.464500  0.750000  1
  Fe  Fe1  1  0.267750  0.535500  0.250000  1
  Zr  Zr2  1  0.421049  0.842097  0.750000  1
  Zr  Zr3  1  0.578951  0.157903  0.250000  1
  Zr  Zr4  1  0.137816  0.275632  0.940229  1
  Zr  Zr5  1  0.862184  0.724368  0.059771  1
  Zr  Zr6  1  0.862184  0.724368  0.440229  1
  Zr  Zr7  1  0.137816  0.275632  0.559771  1
