# generated using pymatgen
data_H5NF2
_symmetry_space_group_name_H-M   'P 1'
_cell_length_a   3.66614251
_cell_length_b   8.20721460
_cell_length_c   8.46154103
_cell_angle_alpha   90.00000000
_cell_angle_beta   90.00000000
_cell_angle_gamma   90.00000000
_symmetry_Int_Tables_number   1
_chemical_formula_structural   H5NF2
_chemical_formula_sum   'H20 N4 F8'
_cell_volume   254.59777088
_cell_formula_units_Z   4
loop_
 _symmetry_equiv_pos_site_id
 _symmetry_equiv_pos_as_xyz
  1  'x, y, z'
loop_
 _atom_site_type_symbol
 _atom_site_label
 _atom_site_symmetry_multiplicity
 _atom_site_fract_x
 _atom_site_fract_y
 _atom_site_fract_z
 _atom_site_occupancy
  H  H0  1  0.880004  0.795924  0.840202  1
  H  H1  1  0.792286  0.157183  0.705833  1
  H  H2  1  0.880004  0.704076  0.340202  1
  H  H3  1  0.792286  0.157183  0.294167  1
  H  H4  1  0.207714  0.842817  0.705833  1
  H  H5  1  0.207714  0.657183  0.794167  1
  H  H6  1  0.792286  0.342817  0.794167  1
  H  H7  1  0.500000  0.500000  0.000000  1
  H  H8  1  0.119996  0.204076  0.159798  1
  H  H9  1  0.880004  0.704076  0.659798  1
  H  H10  1  0.792286  0.342817  0.205833  1
  H  H11  1  0.119996  0.204076  0.840202  1
  H  H12  1  0.880004  0.795924  0.159798  1
  H  H13  1  0.119996  0.295924  0.340202  1
  H  H14  1  0.119996  0.295924  0.659798  1
  H  H15  1  0.500000  0.500000  0.500000  1
  H  H16  1  0.207714  0.657183  0.205833  1
  H  H17  1  0.500000  0.000000  0.000000  1
  H  H18  1  0.500000  0.000000  0.500000  1
  H  H19  1  0.207714  0.842817  0.294167  1
  N  N20  1  0.043446  0.750000  0.750000  1
  N  N21  1  0.956554  0.250000  0.250000  1
  N  N22  1  0.043446  0.750000  0.250000  1
  N  N23  1  0.956554  0.250000  0.750000  1
  F  F24  1  0.386511  0.369041  0.500000  1
  F  F25  1  0.613489  0.630959  0.500000  1
  F  F26  1  0.500000  0.500000  0.135961  1
  F  F27  1  0.500000  0.000000  0.635961  1
  F  F28  1  0.500000  0.500000  0.864039  1
  F  F29  1  0.613489  0.869041  0.000000  1
  F  F30  1  0.386511  0.130959  0.000000  1
  F  F31  1  0.500000  0.000000  0.364039  1
