# generated using pymatgen
data_YZrSb
_symmetry_space_group_name_H-M   'P 1'
_cell_length_a   4.28208002
_cell_length_b   4.28208016
_cell_length_c   8.85535404
_cell_angle_alpha   103.99157394
_cell_angle_beta   103.99157442
_cell_angle_gamma   89.99999842
_symmetry_Int_Tables_number   1
_chemical_formula_structural   YZrSb
_chemical_formula_sum   'Y2 Zr2 Sb2'
_cell_volume   152.58678114
_cell_formula_units_Z   2
loop_
 _symmetry_equiv_pos_site_id
 _symmetry_equiv_pos_as_xyz
  1  'x, y, z'
loop_
 _atom_site_type_symbol
 _atom_site_label
 _atom_site_symmetry_multiplicity
 _atom_site_fract_x
 _atom_site_fract_y
 _atom_site_fract_z
 _atom_site_occupancy
  Y  Y0  1  0.323546  0.323546  0.647091  1
  Y  Y1  1  0.676454  0.676454  0.352909  1
  Zr  Zr2  1  0.500000  0.000000  0.000000  1
  Zr  Zr3  1  0.000000  0.500000  0.000000  1
  Sb  Sb4  1  0.133045  0.133045  0.266090  1
  Sb  Sb5  1  0.866955  0.866955  0.733910  1
