# generated using pymatgen
data_NaTi2BiO6
_symmetry_space_group_name_H-M   'P 1'
_cell_length_a   5.59846137
_cell_length_b   5.59846156
_cell_length_c   5.59846138
_cell_angle_alpha   59.00295899
_cell_angle_beta   59.00295853
_cell_angle_gamma   59.00295959
_symmetry_Int_Tables_number   1
_chemical_formula_structural   NaTi2BiO6
_chemical_formula_sum   'Na1 Ti2 Bi1 O6'
_cell_volume   121.25511061
_cell_formula_units_Z   1
loop_
 _symmetry_equiv_pos_site_id
 _symmetry_equiv_pos_as_xyz
  1  'x, y, z'
loop_
 _atom_site_type_symbol
 _atom_site_label
 _atom_site_symmetry_multiplicity
 _atom_site_fract_x
 _atom_site_fract_y
 _atom_site_fract_z
 _atom_site_occupancy
  Bi  Bi0  1  0.783860  0.783860  0.783860  1
  Na  Na1  1  0.267761  0.267761  0.267761  1
  O  O2  1  0.181337  0.310912  0.746146  1
  O  O3  1  0.310912  0.746146  0.181337  1
  O  O4  1  0.746146  0.181337  0.310912  1
  O  O5  1  0.230850  0.806174  0.684353  1
  O  O6  1  0.684353  0.230850  0.806174  1
  O  O7  1  0.806174  0.684353  0.230850  1
  Ti  Ti8  1  0.014526  0.014526  0.014526  1
  Ti  Ti9  1  0.509881  0.509881  0.509881  1
