# generated using pymatgen
data_Ti3AlC2
_symmetry_space_group_name_H-M   'P 1'
_cell_length_a   3.08137451
_cell_length_b   3.08137452
_cell_length_c   18.67882315
_cell_angle_alpha   90.00000000
_cell_angle_beta   90.00000000
_cell_angle_gamma   120.00000003
_symmetry_Int_Tables_number   1
_chemical_formula_structural   Ti3AlC2
_chemical_formula_sum   'Ti6 Al2 C4'
_cell_volume   153.59218339
_cell_formula_units_Z   2
loop_
 _symmetry_equiv_pos_site_id
 _symmetry_equiv_pos_as_xyz
  1  'x, y, z'
loop_
 _atom_site_type_symbol
 _atom_site_label
 _atom_site_symmetry_multiplicity
 _atom_site_fract_x
 _atom_site_fract_y
 _atom_site_fract_z
 _atom_site_occupancy
  C  C0  1  0.333333  0.666667  0.430732  1
  C  C1  1  0.666667  0.333333  0.930732  1
  C  C2  1  0.333333  0.666667  0.069268  1
  C  C3  1  0.666667  0.333333  0.569268  1
  Al  Al4  1  0.000000  0.000000  0.750000  1
  Al  Al5  1  0.000000  0.000000  0.250000  1
  Ti  Ti6  1  0.666667  0.333333  0.373246  1
  Ti  Ti7  1  0.333333  0.666667  0.873246  1
  Ti  Ti8  1  0.333333  0.666667  0.626754  1
  Ti  Ti9  1  0.666667  0.333333  0.126754  1
  Ti  Ti10  1  0.000000  0.000000  0.500000  1
  Ti  Ti11  1  0.000000  0.000000  0.000000  1
