# generated using pymatgen
data_SiB2Mo5
_symmetry_space_group_name_H-M   'P 1'
_cell_length_a   6.05454250
_cell_length_b   6.05437519
_cell_length_c   7.03165083
_cell_angle_alpha   115.49020763
_cell_angle_beta   115.50060974
_cell_angle_gamma   89.99999997
_symmetry_Int_Tables_number   1
_chemical_formula_structural   SiB2Mo5
_chemical_formula_sum   'Si2 B4 Mo10'
_cell_volume   204.49694633
_cell_formula_units_Z   2
loop_
 _symmetry_equiv_pos_site_id
 _symmetry_equiv_pos_as_xyz
  1  'x, y, z'
loop_
 _atom_site_type_symbol
 _atom_site_label
 _atom_site_symmetry_multiplicity
 _atom_site_fract_x
 _atom_site_fract_y
 _atom_site_fract_z
 _atom_site_occupancy
  B  B0  1  0.379457  0.879457  0.000043  1
  B  B1  1  0.120586  0.379457  0.000043  1
  B  B2  1  0.620543  0.120543  0.999957  1
  B  B3  1  0.879414  0.620543  0.999957  1
  Si  Si4  1  0.250051  0.250000  0.500000  1
  Si  Si5  1  0.749949  0.750000  0.500000  1
  Mo  Mo6  1  0.500000  0.500000  0.000000  1
  Mo  Mo7  1  0.475297  0.303346  0.278607  1
  Mo  Mo8  1  0.303310  0.803346  0.278607  1
  Mo  Mo9  1  0.524703  0.696654  0.721393  1
  Mo  Mo10  1  0.196573  0.024763  0.721360  1
  Mo  Mo11  1  0.024787  0.524763  0.721360  1
  Mo  Mo12  1  0.696690  0.196654  0.721393  1
  Mo  Mo13  1  0.975213  0.475237  0.278640  1
  Mo  Mo14  1  0.000000  0.000000  0.000000  1
  Mo  Mo15  1  0.803427  0.975237  0.278640  1
