# generated using pymatgen
data_Cs2RbZrOF5
_symmetry_space_group_name_H-M   'P 1'
_cell_length_a   6.83558255
_cell_length_b   6.81204708
_cell_length_c   6.83558198
_cell_angle_alpha   60.11383097
_cell_angle_beta   59.77233541
_cell_angle_gamma   60.11383079
_symmetry_Int_Tables_number   1
_chemical_formula_structural   Cs2RbZrOF5
_chemical_formula_sum   'Cs2 Rb1 Zr1 O1 F5'
_cell_volume   225.06263558
_cell_formula_units_Z   1
loop_
 _symmetry_equiv_pos_site_id
 _symmetry_equiv_pos_as_xyz
  1  'x, y, z'
loop_
 _atom_site_type_symbol
 _atom_site_label
 _atom_site_symmetry_multiplicity
 _atom_site_fract_x
 _atom_site_fract_y
 _atom_site_fract_z
 _atom_site_occupancy
  Cs  Cs0  1  0.251793  0.248207  0.251793  1
  Cs  Cs1  1  0.751793  0.748207  0.751793  1
  F  F2  1  0.212396  0.221365  0.778635  1
  F  F3  1  0.778635  0.221365  0.212396  1
  F  F4  1  0.212396  0.787604  0.778635  1
  F  F5  1  0.785606  0.214394  0.785606  1
  F  F6  1  0.778635  0.787604  0.212396  1
  O  O7  1  0.212767  0.787233  0.212767  1
  Rb  Rb8  1  0.497972  0.502028  0.497972  1
  Zr  Zr9  1  0.018006  0.981994  0.018006  1
