# generated using pymatgen
data_MgCo
_symmetry_space_group_name_H-M   'P 1'
_cell_length_a   7.99139819
_cell_length_b   7.99139840
_cell_length_c   7.99139875
_cell_angle_alpha   60.00000200
_cell_angle_beta   60.00000114
_cell_angle_gamma   60.00000363
_symmetry_Int_Tables_number   1
_chemical_formula_structural   MgCo
_chemical_formula_sum   'Mg12 Co12'
_cell_volume   360.87215963
_cell_formula_units_Z   12
loop_
 _symmetry_equiv_pos_site_id
 _symmetry_equiv_pos_as_xyz
  1  'x, y, z'
loop_
 _atom_site_type_symbol
 _atom_site_label
 _atom_site_symmetry_multiplicity
 _atom_site_fract_x
 _atom_site_fract_y
 _atom_site_fract_z
 _atom_site_occupancy
  Co  Co0  1  0.500000  0.500000  0.500000  1
  Co  Co1  1  0.500000  0.500000  0.000000  1
  Co  Co2  1  0.000000  0.500000  0.500000  1
  Co  Co3  1  0.500000  0.000000  0.500000  1
  Co  Co4  1  0.300011  0.300011  0.300011  1
  Co  Co5  1  0.699989  0.699989  0.400032  1
  Co  Co6  1  0.400032  0.699989  0.699989  1
  Co  Co7  1  0.699989  0.400032  0.699989  1
  Co  Co8  1  0.599968  0.300011  0.300011  1
  Co  Co9  1  0.300011  0.599968  0.300011  1
  Co  Co10  1  0.300011  0.300011  0.599968  1
  Co  Co11  1  0.699989  0.699989  0.699989  1
  Mg  Mg12  1  0.670401  0.079599  0.079599  1
  Mg  Mg13  1  0.920401  0.920401  0.329599  1
  Mg  Mg14  1  0.329599  0.329599  0.920401  1
  Mg  Mg15  1  0.920401  0.329599  0.329599  1
  Mg  Mg16  1  0.920401  0.329599  0.920401  1
  Mg  Mg17  1  0.329599  0.920401  0.329599  1
  Mg  Mg18  1  0.079599  0.670401  0.079599  1
  Mg  Mg19  1  0.079599  0.079599  0.670401  1
  Mg  Mg20  1  0.670401  0.670401  0.079599  1
  Mg  Mg21  1  0.670401  0.079599  0.670401  1
  Mg  Mg22  1  0.329599  0.920401  0.920401  1
  Mg  Mg23  1  0.079599  0.670401  0.670401  1
