# generated using pymatgen
data_Li15Si4
_symmetry_space_group_name_H-M   'P 1'
_cell_length_a   9.17883032
_cell_length_b   9.17883024
_cell_length_c   9.17882995
_cell_angle_alpha   109.47121778
_cell_angle_beta   109.47121761
_cell_angle_gamma   109.47122383
_symmetry_Int_Tables_number   1
_chemical_formula_structural   Li15Si4
_chemical_formula_sum   'Li30 Si8'
_cell_volume   595.30581845
_cell_formula_units_Z   2
loop_
 _symmetry_equiv_pos_site_id
 _symmetry_equiv_pos_as_xyz
  1  'x, y, z'
loop_
 _atom_site_type_symbol
 _atom_site_label
 _atom_site_symmetry_multiplicity
 _atom_site_fract_x
 _atom_site_fract_y
 _atom_site_fract_z
 _atom_site_occupancy
  Li  Li0  1  0.723094  0.340152  0.809133  1
  Li  Li1  1  0.875000  0.125000  0.750000  1
  Li  Li2  1  0.809133  0.723094  0.340152  1
  Li  Li3  1  0.586040  0.617059  0.776906  1
  Li  Li4  1  0.690867  0.031019  0.913960  1
  Li  Li5  1  0.117059  0.086040  0.276906  1
  Li  Li6  1  0.031019  0.913960  0.690867  1
  Li  Li7  1  0.086040  0.276906  0.117059  1
  Li  Li8  1  0.531019  0.190867  0.413960  1
  Li  Li9  1  0.617059  0.776906  0.586040  1
  Li  Li10  1  0.913960  0.690867  0.031019  1
  Li  Li11  1  0.413960  0.531019  0.190867  1
  Li  Li12  1  0.250000  0.625000  0.375000  1
  Li  Li13  1  0.882941  0.468981  0.159848  1
  Li  Li14  1  0.750000  0.875000  0.125000  1
  Li  Li15  1  0.659848  0.968981  0.382941  1
  Li  Li16  1  0.190867  0.413960  0.531019  1
  Li  Li17  1  0.276906  0.117059  0.086040  1
  Li  Li18  1  0.223094  0.309133  0.840152  1
  Li  Li19  1  0.125000  0.750000  0.875000  1
  Li  Li20  1  0.159848  0.882941  0.468981  1
  Li  Li21  1  0.776906  0.586040  0.617059  1
  Li  Li22  1  0.968981  0.382941  0.659848  1
  Li  Li23  1  0.340152  0.809133  0.723094  1
  Li  Li24  1  0.382941  0.659848  0.968981  1
  Li  Li25  1  0.468981  0.159848  0.882941  1
  Li  Li26  1  0.840152  0.223094  0.309133  1
  Li  Li27  1  0.625000  0.375000  0.250000  1
  Li  Li28  1  0.309133  0.840152  0.223094  1
  Li  Li29  1  0.375000  0.250000  0.625000  1
  Si  Si30  1  0.584058  0.500000  0.000000  1
  Si  Si31  1  0.000000  0.584058  0.500000  1
  Si  Si32  1  0.084058  0.500000  0.000000  1
  Si  Si33  1  0.500000  0.000000  0.084058  1
  Si  Si34  1  0.500000  0.000000  0.584058  1
  Si  Si35  1  0.000000  0.084058  0.500000  1
  Si  Si36  1  0.415942  0.415942  0.415942  1
  Si  Si37  1  0.915942  0.915942  0.915942  1
