# generated using pymatgen
data_VCuO3
_symmetry_space_group_name_H-M   'P 1'
_cell_length_a   5.56549073
_cell_length_b   5.56549073
_cell_length_c   5.56549073
_cell_angle_alpha   53.41455561
_cell_angle_beta   53.41455555
_cell_angle_gamma   53.41455561
_symmetry_Int_Tables_number   1
_chemical_formula_structural   VCuO3
_chemical_formula_sum   'V2 Cu2 O6'
_cell_volume   103.10831717
_cell_formula_units_Z   2
loop_
 _symmetry_equiv_pos_site_id
 _symmetry_equiv_pos_as_xyz
  1  'x, y, z'
loop_
 _atom_site_type_symbol
 _atom_site_label
 _atom_site_symmetry_multiplicity
 _atom_site_fract_x
 _atom_site_fract_y
 _atom_site_fract_z
 _atom_site_occupancy
  O  O0  1  0.285074  0.933390  0.553676  1
  O  O1  1  0.933390  0.553676  0.285074  1
  O  O2  1  0.553676  0.285074  0.933390  1
  O  O3  1  0.714926  0.066610  0.446324  1
  O  O4  1  0.446324  0.714926  0.066610  1
  O  O5  1  0.066610  0.446324  0.714926  1
  V  V6  1  0.647501  0.647501  0.647501  1
  V  V7  1  0.352499  0.352499  0.352499  1
  Cu  Cu8  1  0.860773  0.860773  0.860773  1
  Cu  Cu9  1  0.139227  0.139227  0.139227  1
