# generated using pymatgen
data_BaTiO3
_symmetry_space_group_name_H-M   'P 1'
_cell_length_a   4.07613140
_cell_length_b   4.07613208
_cell_length_c   4.07613171
_cell_angle_alpha   89.62987390
_cell_angle_beta   89.62987384
_cell_angle_gamma   89.62988293
_symmetry_Int_Tables_number   1
_chemical_formula_structural   BaTiO3
_chemical_formula_sum   'Ba1 Ti1 O3'
_cell_volume   67.72009586
_cell_formula_units_Z   1
loop_
 _symmetry_equiv_pos_site_id
 _symmetry_equiv_pos_as_xyz
  1  'x, y, z'
loop_
 _atom_site_type_symbol
 _atom_site_label
 _atom_site_symmetry_multiplicity
 _atom_site_fract_x
 _atom_site_fract_y
 _atom_site_fract_z
 _atom_site_occupancy
  Ba  Ba0  1  0.009864  0.009864  0.009864  1
  Ti  Ti1  1  0.494744  0.494744  0.494744  1
  O  O2  1  0.525796  0.035800  0.525796  1
  O  O3  1  0.035800  0.525796  0.525796  1
  O  O4  1  0.525796  0.525796  0.035800  1
