# generated using pymatgen
data_Fe2B
_symmetry_space_group_name_H-M   'P 1'
_cell_length_a   4.30232503
_cell_length_b   4.30232515
_cell_length_c   4.30232502
_cell_angle_alpha   109.77863659
_cell_angle_beta   109.77863656
_cell_angle_gamma   108.85813495
_symmetry_Int_Tables_number   1
_chemical_formula_structural   Fe2B
_chemical_formula_sum   'Fe4 B2'
_cell_volume   61.29858612
_cell_formula_units_Z   2
loop_
 _symmetry_equiv_pos_site_id
 _symmetry_equiv_pos_as_xyz
  1  'x, y, z'
loop_
 _atom_site_type_symbol
 _atom_site_label
 _atom_site_symmetry_multiplicity
 _atom_site_fract_x
 _atom_site_fract_y
 _atom_site_fract_z
 _atom_site_occupancy
  Fe  Fe0  1  0.997643  0.997643  0.499195  1
  Fe  Fe1  1  0.002357  0.501552  0.000000  1
  Fe  Fe2  1  0.498448  0.498448  0.500805  1
  Fe  Fe3  1  0.501552  0.002357  0.000000  1
  B  B4  1  0.500000  0.500000  0.000000  1
  B  B5  1  0.000000  0.000000  0.000000  1
