# generated using pymatgen
data_Ti2FeSe4
_symmetry_space_group_name_H-M   'P 1'
_cell_length_a   3.56723588
_cell_length_b   6.26349668
_cell_length_c   6.99670875
_cell_angle_alpha   116.48651490
_cell_angle_beta   104.76899496
_cell_angle_gamma   89.99999618
_symmetry_Int_Tables_number   1
_chemical_formula_structural   Ti2FeSe4
_chemical_formula_sum   'Ti2 Fe1 Se4'
_cell_volume   134.12626245
_cell_formula_units_Z   1
loop_
 _symmetry_equiv_pos_site_id
 _symmetry_equiv_pos_as_xyz
  1  'x, y, z'
loop_
 _atom_site_type_symbol
 _atom_site_label
 _atom_site_symmetry_multiplicity
 _atom_site_fract_x
 _atom_site_fract_y
 _atom_site_fract_z
 _atom_site_occupancy
  Fe  Fe0  1  0.000000  0.000000  0.000000  1
  Se  Se1  1  0.625471  0.956815  0.250942  1
  Se  Se2  1  0.374529  0.043185  0.749058  1
  Se  Se3  1  0.884170  0.548356  0.768341  1
  Se  Se4  1  0.115830  0.451644  0.231659  1
  Ti  Ti5  1  0.749708  0.728703  0.499415  1
  Ti  Ti6  1  0.250292  0.271297  0.500585  1
