# generated using pymatgen
data_SrSO4
_symmetry_space_group_name_H-M   'P 1'
_cell_length_a   5.27778791
_cell_length_b   7.52803144
_cell_length_c   8.30560731
_cell_angle_alpha   90.00000000
_cell_angle_beta   90.00000000
_cell_angle_gamma   90.00000000
_symmetry_Int_Tables_number   1
_chemical_formula_structural   SrSO4
_chemical_formula_sum   'Sr4 S4 O16'
_cell_volume   329.99301857
_cell_formula_units_Z   4
loop_
 _symmetry_equiv_pos_site_id
 _symmetry_equiv_pos_as_xyz
  1  'x, y, z'
loop_
 _atom_site_type_symbol
 _atom_site_label
 _atom_site_symmetry_multiplicity
 _atom_site_fract_x
 _atom_site_fract_y
 _atom_site_fract_z
 _atom_site_occupancy
  Sr  Sr0  1  0.250000  0.630016  0.692225  1
  Sr  Sr1  1  0.750000  0.130016  0.807775  1
  Sr  Sr2  1  0.750000  0.369984  0.307775  1
  Sr  Sr3  1  0.250000  0.869984  0.192225  1
  S  S4  1  0.750000  0.808063  0.437713  1
  S  S5  1  0.250000  0.308063  0.062287  1
  S  S6  1  0.250000  0.191937  0.562287  1
  S  S7  1  0.750000  0.691937  0.937713  1
  O  O8  1  0.750000  0.929997  0.297792  1
  O  O9  1  0.981131  0.808783  0.927955  1
  O  O10  1  0.981131  0.691217  0.427955  1
  O  O11  1  0.250000  0.070003  0.702208  1
  O  O12  1  0.018869  0.308783  0.572045  1
  O  O13  1  0.750000  0.902837  0.592684  1
  O  O14  1  0.481131  0.191217  0.072045  1
  O  O15  1  0.750000  0.570003  0.797792  1
  O  O16  1  0.750000  0.597163  0.092684  1
  O  O17  1  0.481131  0.308783  0.572045  1
  O  O18  1  0.518869  0.691217  0.427955  1
  O  O19  1  0.250000  0.429997  0.202208  1
  O  O20  1  0.250000  0.402837  0.907316  1
  O  O21  1  0.018869  0.191217  0.072045  1
  O  O22  1  0.518869  0.808783  0.927955  1
  O  O23  1  0.250000  0.097163  0.407316  1
