# generated using pymatgen
data_Sr2GaSbO6
_symmetry_space_group_name_H-M   'P 1'
_cell_length_a   5.59458804
_cell_length_b   5.59458803
_cell_length_c   5.66360357
_cell_angle_alpha   119.59770902
_cell_angle_beta   119.59770909
_cell_angle_gamma   90.00000008
_symmetry_Int_Tables_number   1
_chemical_formula_structural   Sr2GaSbO6
_chemical_formula_sum   'Sr2 Ga1 Sb1 O6'
_cell_volume   126.85610079
_cell_formula_units_Z   1
loop_
 _symmetry_equiv_pos_site_id
 _symmetry_equiv_pos_as_xyz
  1  'x, y, z'
loop_
 _atom_site_type_symbol
 _atom_site_label
 _atom_site_symmetry_multiplicity
 _atom_site_fract_x
 _atom_site_fract_y
 _atom_site_fract_z
 _atom_site_occupancy
  O  O0  1  0.791948  0.708613  0.000000  1
  O  O1  1  0.291387  0.791948  0.000000  1
  O  O2  1  0.708613  0.208052  0.000000  1
  O  O3  1  0.208052  0.291387  0.000000  1
  O  O4  1  0.252092  0.252092  0.504184  1
  O  O5  1  0.747908  0.747908  0.495816  1
  Ga  Ga6  1  0.000000  0.000000  0.000000  1
  Sr  Sr7  1  0.250000  0.750000  0.500000  1
  Sr  Sr8  1  0.750000  0.250000  0.500000  1
  Sb  Sb9  1  0.500000  0.500000  0.000000  1
