# generated using pymatgen
data_Ni3Sb
_symmetry_space_group_name_H-M   'P 1'
_cell_length_a   4.25300325
_cell_length_b   4.57223566
_cell_length_c   5.29069319
_cell_angle_alpha   90.00000000
_cell_angle_beta   90.00000000
_cell_angle_gamma   90.00000000
_symmetry_Int_Tables_number   1
_chemical_formula_structural   Ni3Sb
_chemical_formula_sum   'Ni6 Sb2'
_cell_volume   102.88140780
_cell_formula_units_Z   2
loop_
 _symmetry_equiv_pos_site_id
 _symmetry_equiv_pos_as_xyz
  1  'x, y, z'
loop_
 _atom_site_type_symbol
 _atom_site_label
 _atom_site_symmetry_multiplicity
 _atom_site_fract_x
 _atom_site_fract_y
 _atom_site_fract_z
 _atom_site_occupancy
  Ni  Ni0  1  0.250000  0.319309  0.750000  1
  Ni  Ni1  1  0.750000  0.680691  0.250000  1
  Ni  Ni2  1  0.250000  0.831608  0.999869  1
  Ni  Ni3  1  0.750000  0.168392  0.000131  1
  Ni  Ni4  1  0.250000  0.831608  0.500131  1
  Ni  Ni5  1  0.750000  0.168392  0.499869  1
  Sb  Sb6  1  0.750000  0.675414  0.750000  1
  Sb  Sb7  1  0.250000  0.324586  0.250000  1
