# generated using pymatgen
data_Al2HgS4
_symmetry_space_group_name_H-M   'P 1'
_cell_length_a   5.64234918
_cell_length_b   5.64111420
_cell_length_c   6.51209997
_cell_angle_alpha   115.56463766
_cell_angle_beta   115.63737210
_cell_angle_gamma   90.06529594
_symmetry_Int_Tables_number   1
_chemical_formula_structural   Al2HgS4
_chemical_formula_sum   'Al2 Hg1 S4'
_cell_volume   164.01546248
_cell_formula_units_Z   1
loop_
 _symmetry_equiv_pos_site_id
 _symmetry_equiv_pos_as_xyz
  1  'x, y, z'
loop_
 _atom_site_type_symbol
 _atom_site_label
 _atom_site_symmetry_multiplicity
 _atom_site_fract_x
 _atom_site_fract_y
 _atom_site_fract_z
 _atom_site_occupancy
  Al  Al0  1  0.499668  0.499939  0.999503  1
  Al  Al1  1  0.750805  0.251073  0.499751  1
  Hg  Hg2  1  0.999426  0.996967  0.000321  1
  S  S3  1  0.131121  0.148024  0.731524  1
  S  S4  1  0.596017  0.582677  0.727658  1
  S  S5  1  0.418658  0.869467  0.271437  1
  S  S6  1  0.854305  0.401853  0.269807  1
