# generated using pymatgen
data_CuS
_symmetry_space_group_name_H-M   'P 1'
_cell_length_a   3.68160028
_cell_length_b   3.68160028
_cell_length_c   6.36546167
_cell_angle_alpha   106.82885205
_cell_angle_beta   106.82885205
_cell_angle_gamma   60.01069333
_symmetry_Int_Tables_number   1
_chemical_formula_structural   CuS
_chemical_formula_sum   'Cu2 S2'
_cell_volume   70.42767975
_cell_formula_units_Z   2
loop_
 _symmetry_equiv_pos_site_id
 _symmetry_equiv_pos_as_xyz
  1  'x, y, z'
loop_
 _atom_site_type_symbol
 _atom_site_label
 _atom_site_symmetry_multiplicity
 _atom_site_fract_x
 _atom_site_fract_y
 _atom_site_fract_z
 _atom_site_occupancy
  Cu  Cu0  1  0.375056  0.375056  0.124988  1
  Cu  Cu1  1  0.875077  0.875077  0.624983  1
  S  S2  1  0.999933  0.999933  0.000017  1
  S  S3  1  0.499935  0.499935  0.500012  1
