# generated using pymatgen
data_TaSe2
_symmetry_space_group_name_H-M   'P 1'
_cell_length_a   7.37184099
_cell_length_b   7.37184099
_cell_length_c   7.37184099
_cell_angle_alpha   27.26879230
_cell_angle_beta   27.26879234
_cell_angle_gamma   27.26879230
_symmetry_Int_Tables_number   1
_chemical_formula_structural   TaSe2
_chemical_formula_sum   'Ta1 Se2'
_cell_volume   74.20216133
_cell_formula_units_Z   1
loop_
 _symmetry_equiv_pos_site_id
 _symmetry_equiv_pos_as_xyz
  1  'x, y, z'
loop_
 _atom_site_type_symbol
 _atom_site_label
 _atom_site_symmetry_multiplicity
 _atom_site_fract_x
 _atom_site_fract_y
 _atom_site_fract_z
 _atom_site_occupancy
  Se  Se0  1  0.412349  0.412349  0.412349  1
  Se  Se1  1  0.254552  0.254552  0.254552  1
  Ta  Ta2  1  0.000099  0.000099  0.000099  1
