# generated using pymatgen
data_Li4Fe3O8
_symmetry_space_group_name_H-M   'P 1'
_cell_length_a   10.29599167
_cell_length_b   10.29227915
_cell_length_c   14.60415601
_cell_angle_alpha   19.03075451
_cell_angle_beta   19.02871225
_cell_angle_gamma   32.80060090
_symmetry_Int_Tables_number   1
_chemical_formula_structural   Li4Fe3O8
_chemical_formula_sum   'Li4 Fe3 O8'
_cell_volume   142.51706778
_cell_formula_units_Z   1
loop_
 _symmetry_equiv_pos_site_id
 _symmetry_equiv_pos_as_xyz
  1  'x, y, z'
loop_
 _atom_site_type_symbol
 _atom_site_label
 _atom_site_symmetry_multiplicity
 _atom_site_fract_x
 _atom_site_fract_y
 _atom_site_fract_z
 _atom_site_occupancy
  Li  Li0  1  0.999702  0.999805  0.001453  1
  Li  Li1  1  0.000189  0.499238  0.499782  1
  Li  Li2  1  0.498965  -0.000010  0.500057  1
  Li  Li3  1  0.501015  0.500863  0.498239  1
  Fe  Fe4  1  0.999795  0.499485  0.000441  1
  Fe  Fe5  1  0.499843  -0.000049  0.000104  1
  Fe  Fe6  1  0.500838  0.500773  0.998573  1
  O  O7  1  0.997509  0.997520  0.252073  1
  O  O8  1  0.999274  0.478216  0.279164  1
  O  O9  1  0.477182  0.996956  0.281265  1
  O  O10  1  0.002393  0.002512  0.747514  1
  O  O11  1  0.521982  0.522562  0.234659  1
  O  O12  1  0.000692  0.525124  0.719065  1
  O  O13  1  0.525778  0.002828  0.717400  1
  O  O14  1  0.474846  0.474176  0.770207  1
