# generated using pymatgen
data_NaNbN2
_symmetry_space_group_name_H-M   'P 1'
_cell_length_a   5.99334127
_cell_length_b   5.99334127
_cell_length_c   5.99334127
_cell_angle_alpha   30.48100273
_cell_angle_beta   30.48100275
_cell_angle_gamma   30.48100274
_symmetry_Int_Tables_number   1
_chemical_formula_structural   NaNbN2
_chemical_formula_sum   'Na1 Nb1 N2'
_cell_volume   49.10147070
_cell_formula_units_Z   1
loop_
 _symmetry_equiv_pos_site_id
 _symmetry_equiv_pos_as_xyz
  1  'x, y, z'
loop_
 _atom_site_type_symbol
 _atom_site_label
 _atom_site_symmetry_multiplicity
 _atom_site_fract_x
 _atom_site_fract_y
 _atom_site_fract_z
 _atom_site_occupancy
  N  N0  1  0.731709  0.731709  0.731709  1
  N  N1  1  0.268291  0.268291  0.268291  1
  Na  Na2  1  0.500000  0.500000  0.500000  1
  Nb  Nb3  1  0.000000  0.000000  0.000000  1
