# generated using pymatgen
data_MnF3
_symmetry_space_group_name_H-M   'P 1'
_cell_length_a   5.40633378
_cell_length_b   3.88939091
_cell_length_c   5.60075974
_cell_angle_alpha   90.00563433
_cell_angle_beta   90.01547742
_cell_angle_gamma   90.00091574
_symmetry_Int_Tables_number   1
_chemical_formula_structural   MnF3
_chemical_formula_sum   'Mn2 F6'
_cell_volume   117.76910485
_cell_formula_units_Z   2
loop_
 _symmetry_equiv_pos_site_id
 _symmetry_equiv_pos_as_xyz
  1  'x, y, z'
loop_
 _atom_site_type_symbol
 _atom_site_label
 _atom_site_symmetry_multiplicity
 _atom_site_fract_x
 _atom_site_fract_y
 _atom_site_fract_z
 _atom_site_occupancy
  Mn  Mn0  1  0.000176  0.007420  0.996617  1
  Mn  Mn1  1  0.500545  0.007530  0.496645  1
  F  F2  1  0.000097  0.507166  0.996108  1
  F  F3  1  0.217716  0.007509  0.686318  1
  F  F4  1  0.283053  0.007204  0.186356  1
  F  F5  1  0.500672  0.507511  0.496284  1
  F  F6  1  0.716951  0.007144  0.807696  1
  F  F7  1  0.783614  0.007416  0.307621  1
