# generated using pymatgen
data_CaSiPt
_symmetry_space_group_name_H-M   'P 1'
_cell_length_a   5.89253487
_cell_length_b   5.94519297
_cell_length_c   7.29049656
_cell_angle_alpha   109.11388450
_cell_angle_beta   90.00000000
_cell_angle_gamma   90.00000000
_symmetry_Int_Tables_number   1
_chemical_formula_structural   CaSiPt
_chemical_formula_sum   'Ca4 Si4 Pt4'
_cell_volume   241.32210128
_cell_formula_units_Z   4
loop_
 _symmetry_equiv_pos_site_id
 _symmetry_equiv_pos_as_xyz
  1  'x, y, z'
loop_
 _atom_site_type_symbol
 _atom_site_label
 _atom_site_symmetry_multiplicity
 _atom_site_fract_x
 _atom_site_fract_y
 _atom_site_fract_z
 _atom_site_occupancy
  Si  Si0  1  0.620599  0.180126  0.947173  1
  Si  Si1  1  0.379401  0.819874  0.052827  1
  Si  Si2  1  0.120599  0.319874  0.552827  1
  Si  Si3  1  0.879401  0.680126  0.447173  1
  Ca  Ca4  1  0.128826  0.318021  0.114256  1
  Ca  Ca5  1  0.371174  0.818021  0.614256  1
  Ca  Ca6  1  0.871174  0.681979  0.885744  1
  Ca  Ca7  1  0.628826  0.181979  0.385744  1
  Pt  Pt8  1  0.608605  0.568670  0.191486  1
  Pt  Pt9  1  0.391395  0.431330  0.808514  1
  Pt  Pt10  1  0.891395  0.068670  0.691486  1
  Pt  Pt11  1  0.108605  0.931330  0.308514  1
