# generated using pymatgen
data_Li3CuS2
_symmetry_space_group_name_H-M   'P 1'
_cell_length_a   6.41034329
_cell_length_b   6.41034329
_cell_length_c   6.41034291
_cell_angle_alpha   62.36902433
_cell_angle_beta   62.36902433
_cell_angle_gamma   62.36903382
_symmetry_Int_Tables_number   1
_chemical_formula_structural   Li3CuS2
_chemical_formula_sum   'Li6 Cu2 S4'
_cell_volume   196.10727614
_cell_formula_units_Z   2
loop_
 _symmetry_equiv_pos_site_id
 _symmetry_equiv_pos_as_xyz
  1  'x, y, z'
loop_
 _atom_site_type_symbol
 _atom_site_label
 _atom_site_symmetry_multiplicity
 _atom_site_fract_x
 _atom_site_fract_y
 _atom_site_fract_z
 _atom_site_occupancy
  Li  Li0  1  0.250000  0.973211  0.526789  1
  Li  Li1  1  0.026789  0.473211  0.750000  1
  Li  Li2  1  0.473211  0.750000  0.026789  1
  Li  Li3  1  0.526789  0.250000  0.973211  1
  Li  Li4  1  0.973211  0.526789  0.250000  1
  Li  Li5  1  0.750000  0.026789  0.473211  1
  Cu  Cu6  1  0.000000  0.000000  0.000000  1
  Cu  Cu7  1  0.500000  0.500000  0.500000  1
  S  S8  1  0.362009  0.362009  0.362009  1
  S  S9  1  0.637991  0.637991  0.637991  1
  S  S10  1  0.137991  0.137991  0.137991  1
  S  S11  1  0.862009  0.862009  0.862009  1
