# generated using pymatgen
data_Ta3B4
_symmetry_space_group_name_H-M   'P 1'
_cell_length_a   3.14365080
_cell_length_b   3.30523826
_cell_length_c   7.40430460
_cell_angle_alpha   102.89688225
_cell_angle_beta   102.25631337
_cell_angle_gamma   89.99999995
_symmetry_Int_Tables_number   1
_chemical_formula_structural   Ta3B4
_chemical_formula_sum   'Ta3 B4'
_cell_volume   73.19374116
_cell_formula_units_Z   1
loop_
 _symmetry_equiv_pos_site_id
 _symmetry_equiv_pos_as_xyz
  1  'x, y, z'
loop_
 _atom_site_type_symbol
 _atom_site_label
 _atom_site_symmetry_multiplicity
 _atom_site_fract_x
 _atom_site_fract_y
 _atom_site_fract_z
 _atom_site_occupancy
  B  B0  1  0.935833  0.435833  0.871665  1
  B  B1  1  0.064167  0.564167  0.128335  1
  B  B2  1  0.366888  0.366888  0.733776  1
  B  B3  1  0.633112  0.633112  0.266224  1
  Ta  Ta4  1  0.185194  0.185194  0.370387  1
  Ta  Ta5  1  0.814806  0.814806  0.629613  1
  Ta  Ta6  1  0.500000  0.000000  0.000000  1
