# generated using pymatgen
data_Ta2AlC
_symmetry_space_group_name_H-M   'P 1'
_cell_length_a   3.10048152
_cell_length_b   3.10048152
_cell_length_c   13.93039155
_cell_angle_alpha   90.00000000
_cell_angle_beta   90.00000000
_cell_angle_gamma   119.99999784
_symmetry_Int_Tables_number   1
_chemical_formula_structural   Ta2AlC
_chemical_formula_sum   'Ta4 Al2 C2'
_cell_volume   115.97176282
_cell_formula_units_Z   2
loop_
 _symmetry_equiv_pos_site_id
 _symmetry_equiv_pos_as_xyz
  1  'x, y, z'
loop_
 _atom_site_type_symbol
 _atom_site_label
 _atom_site_symmetry_multiplicity
 _atom_site_fract_x
 _atom_site_fract_y
 _atom_site_fract_z
 _atom_site_occupancy
  Ta  Ta0  1  0.666667  0.333333  0.409913  1
  Ta  Ta1  1  0.333333  0.666667  0.590087  1
  Ta  Ta2  1  0.333333  0.666667  0.909913  1
  Ta  Ta3  1  0.666667  0.333333  0.090087  1
  Al  Al4  1  0.666667  0.333333  0.750000  1
  Al  Al5  1  0.333333  0.666667  0.250000  1
  C  C6  1  0.000000  0.000000  0.000000  1
  C  C7  1  0.000000  -0.000000  0.500000  1
