# generated using pymatgen
data_Y2Fe2Si2C
_symmetry_space_group_name_H-M   'P 1'
_cell_length_a   3.92707622
_cell_length_b   5.64344616
_cell_length_c   5.65837526
_cell_angle_alpha   73.41472417
_cell_angle_beta   69.69518470
_cell_angle_gamma   69.63909276
_symmetry_Int_Tables_number   1
_chemical_formula_structural   Y2Fe2Si2C
_chemical_formula_sum   'Y2 Fe2 Si2 C1'
_cell_volume   108.30968582
_cell_formula_units_Z   1
loop_
 _symmetry_equiv_pos_site_id
 _symmetry_equiv_pos_as_xyz
  1  'x, y, z'
loop_
 _atom_site_type_symbol
 _atom_site_label
 _atom_site_symmetry_multiplicity
 _atom_site_fract_x
 _atom_site_fract_y
 _atom_site_fract_z
 _atom_site_occupancy
  Y  Y0  1  0.439817  0.825638  0.294728  1
  Y  Y1  1  0.560183  0.174362  0.705272  1
  Fe  Fe2  1  0.798952  0.306792  0.095304  1
  Fe  Fe3  1  0.201048  0.693208  0.904696  1
  Si  Si4  1  0.838576  0.605963  0.716885  1
  Si  Si5  1  0.161424  0.394037  0.283115  1
  C  C6  1  -0.000000  0.000000  -0.000000  1
