# generated using pymatgen
data_MnSi
_symmetry_space_group_name_H-M   'P 1'
_cell_length_a   4.52192919
_cell_length_b   4.52192919
_cell_length_c   4.52192919
_cell_angle_alpha   90.00000000
_cell_angle_beta   90.00000000
_cell_angle_gamma   90.00000000
_symmetry_Int_Tables_number   1
_chemical_formula_structural   MnSi
_chemical_formula_sum   'Mn4 Si4'
_cell_volume   92.46370084
_cell_formula_units_Z   4
loop_
 _symmetry_equiv_pos_site_id
 _symmetry_equiv_pos_as_xyz
  1  'x, y, z'
loop_
 _atom_site_type_symbol
 _atom_site_label
 _atom_site_symmetry_multiplicity
 _atom_site_fract_x
 _atom_site_fract_y
 _atom_site_fract_z
 _atom_site_occupancy
  Si  Si0  1  0.154865  0.345135  0.654865  1
  Si  Si1  1  0.345135  0.654865  0.154865  1
  Si  Si2  1  0.654865  0.154865  0.345135  1
  Si  Si3  1  0.845135  0.845135  0.845135  1
  Mn  Mn4  1  0.863360  0.636640  0.363360  1
  Mn  Mn5  1  0.636640  0.363360  0.863360  1
  Mn  Mn6  1  0.363360  0.863360  0.636640  1
  Mn  Mn7  1  0.136640  0.136640  0.136640  1
