# generated using pymatgen
data_K2NaCuF6
_symmetry_space_group_name_H-M   'P 1'
_cell_length_a   5.91909459
_cell_length_b   5.91909458
_cell_length_c   5.91909459
_cell_angle_alpha   60.00000002
_cell_angle_beta   60.00000003
_cell_angle_gamma   59.99999998
_symmetry_Int_Tables_number   1
_chemical_formula_structural   K2NaCuF6
_chemical_formula_sum   'K2 Na1 Cu1 F6'
_cell_volume   146.63945651
_cell_formula_units_Z   1
loop_
 _symmetry_equiv_pos_site_id
 _symmetry_equiv_pos_as_xyz
  1  'x, y, z'
loop_
 _atom_site_type_symbol
 _atom_site_label
 _atom_site_symmetry_multiplicity
 _atom_site_fract_x
 _atom_site_fract_y
 _atom_site_fract_z
 _atom_site_occupancy
  F  F0  1  0.230465  0.769535  0.769535  1
  F  F1  1  0.230465  0.769535  0.230465  1
  F  F2  1  0.769535  0.230465  0.769535  1
  F  F3  1  0.230465  0.230465  0.769535  1
  F  F4  1  0.769535  0.230465  0.230465  1
  F  F5  1  0.769535  0.769535  0.230465  1
  Na  Na6  1  0.500000  0.500000  0.500000  1
  K  K7  1  0.250000  0.250000  0.250000  1
  K  K8  1  0.750000  0.750000  0.750000  1
  Cu  Cu9  1  0.000000  0.000000  0.000000  1
