# generated using pymatgen
data_BaSi2
_symmetry_space_group_name_H-M   'P 1'
_cell_length_a   6.76445299
_cell_length_b   9.06404564
_cell_length_c   11.58787946
_cell_angle_alpha   90.00000000
_cell_angle_beta   90.00000000
_cell_angle_gamma   90.00000000
_symmetry_Int_Tables_number   1
_chemical_formula_structural   BaSi2
_chemical_formula_sum   'Ba8 Si16'
_cell_volume   710.49125289
_cell_formula_units_Z   8
loop_
 _symmetry_equiv_pos_site_id
 _symmetry_equiv_pos_as_xyz
  1  'x, y, z'
loop_
 _atom_site_type_symbol
 _atom_site_label
 _atom_site_symmetry_multiplicity
 _atom_site_fract_x
 _atom_site_fract_y
 _atom_site_fract_z
 _atom_site_occupancy
  Ba  Ba0  1  0.250000  0.512472  0.808668  1
  Ba  Ba1  1  0.250000  0.345157  0.407259  1
  Ba  Ba2  1  0.750000  0.487528  0.191332  1
  Ba  Ba3  1  0.750000  0.154843  0.907259  1
  Ba  Ba4  1  0.750000  0.987528  0.308668  1
  Ba  Ba5  1  0.750000  0.654843  0.592741  1
  Ba  Ba6  1  0.250000  0.012472  0.691332  1
  Ba  Ba7  1  0.250000  0.845157  0.092741  1
  Si  Si8  1  0.927841  0.303793  0.647472  1
  Si  Si9  1  0.427841  0.696207  0.352528  1
  Si  Si10  1  0.750000  0.301216  0.467550  1
  Si  Si11  1  0.250000  0.916315  0.408489  1
  Si  Si12  1  0.427841  0.196207  0.147472  1
  Si  Si13  1  0.927841  0.803793  0.852528  1
  Si  Si14  1  0.750000  0.083685  0.591511  1
  Si  Si15  1  0.572159  0.803793  0.852528  1
  Si  Si16  1  0.072159  0.196207  0.147472  1
  Si  Si17  1  0.250000  0.416315  0.091511  1
  Si  Si18  1  0.250000  0.198784  0.967550  1
  Si  Si19  1  0.250000  0.698784  0.532450  1
  Si  Si20  1  0.072159  0.696207  0.352528  1
  Si  Si21  1  0.750000  0.583685  0.908489  1
  Si  Si22  1  0.750000  0.801216  0.032450  1
  Si  Si23  1  0.572159  0.303793  0.647472  1
