# generated using pymatgen
data_Li2FeSiO4
_symmetry_space_group_name_H-M   'P 1'
_cell_length_a   5.01703126
_cell_length_b   5.41024779
_cell_length_c   6.34019612
_cell_angle_alpha   90.00000000
_cell_angle_beta   90.00000000
_cell_angle_gamma   90.00000000
_symmetry_Int_Tables_number   1
_chemical_formula_structural   Li2FeSiO4
_chemical_formula_sum   'Li4 Fe2 Si2 O8'
_cell_volume   172.09436706
_cell_formula_units_Z   2
loop_
 _symmetry_equiv_pos_site_id
 _symmetry_equiv_pos_as_xyz
  1  'x, y, z'
loop_
 _atom_site_type_symbol
 _atom_site_label
 _atom_site_symmetry_multiplicity
 _atom_site_fract_x
 _atom_site_fract_y
 _atom_site_fract_z
 _atom_site_occupancy
  Li  Li0  1  0.057463  0.668174  0.750233  1
  Li  Li1  1  0.557463  0.331826  0.749767  1
  Li  Li2  1  0.557463  0.331826  0.250233  1
  Li  Li3  1  0.057463  0.668174  0.249767  1
  O  O4  1  0.720908  0.179420  0.000000  1
  O  O5  1  0.159412  0.314165  0.785993  1
  O  O6  1  0.220908  0.820580  0.500000  1
  O  O7  1  0.648260  0.122637  0.500000  1
  O  O8  1  0.659412  0.685835  0.285993  1
  O  O9  1  0.659412  0.685835  0.714007  1
  O  O10  1  0.159412  0.314165  0.214007  1
  O  O11  1  0.148260  0.877363  0.000000  1
  Si  Si12  1  0.049820  0.170309  0.000000  1
  Si  Si13  1  0.549820  0.829691  0.500000  1
  Fe  Fe14  1  0.062263  0.170818  0.500000  1
  Fe  Fe15  1  0.562263  0.829182  0.000000  1
