# generated using pymatgen
data_Mn3Al9Si
_symmetry_space_group_name_H-M   'P 1'
_cell_length_a   7.49751564
_cell_length_b   7.49751564
_cell_length_c   7.64735782
_cell_angle_alpha   90.00000000
_cell_angle_beta   90.00000000
_cell_angle_gamma   120.00000000
_symmetry_Int_Tables_number   1
_chemical_formula_structural   Mn3Al9Si
_chemical_formula_sum   'Mn6 Al18 Si2'
_cell_volume   372.28608498
_cell_formula_units_Z   2
loop_
 _symmetry_equiv_pos_site_id
 _symmetry_equiv_pos_as_xyz
  1  'x, y, z'
loop_
 _atom_site_type_symbol
 _atom_site_label
 _atom_site_symmetry_multiplicity
 _atom_site_fract_x
 _atom_site_fract_y
 _atom_site_fract_z
 _atom_site_occupancy
  Al  Al0  1  0.799676  0.200324  0.435684  1
  Al  Al1  1  0.799676  0.200324  0.064316  1
  Al  Al2  1  0.200324  0.799676  0.564316  1
  Al  Al3  1  0.200324  0.400648  0.564316  1
  Al  Al4  1  0.599352  0.799676  0.564316  1
  Al  Al5  1  0.400648  0.200324  0.064316  1
  Al  Al6  1  0.457377  0.914754  0.250000  1
  Al  Al7  1  0.542623  0.457377  0.750000  1
  Al  Al8  1  0.914754  0.457377  0.750000  1
  Al  Al9  1  0.799676  0.599352  0.064316  1
  Al  Al10  1  0.457377  0.542623  0.250000  1
  Al  Al11  1  0.542623  0.085246  0.750000  1
  Al  Al12  1  0.200324  0.400648  0.935684  1
  Al  Al13  1  0.085246  0.542623  0.250000  1
  Al  Al14  1  0.400648  0.200324  0.435684  1
  Al  Al15  1  0.599352  0.799676  0.935684  1
  Al  Al16  1  0.200324  0.799676  0.935684  1
  Al  Al17  1  0.799676  0.599352  0.435684  1
  Si  Si18  1  0.000000  0.000000  0.000000  1
  Si  Si19  1  0.000000  0.000000  0.500000  1
  Mn  Mn20  1  0.761781  0.880890  0.250000  1
  Mn  Mn21  1  0.119110  0.880890  0.250000  1
  Mn  Mn22  1  0.880890  0.761781  0.750000  1
  Mn  Mn23  1  0.238219  0.119110  0.750000  1
  Mn  Mn24  1  0.880890  0.119110  0.750000  1
  Mn  Mn25  1  0.119110  0.238219  0.250000  1
