# generated using pymatgen
data_Na5CoSO2
_symmetry_space_group_name_H-M   'P 1'
_cell_length_a   4.61544150
_cell_length_b   4.61544150
_cell_length_c   8.10352978
_cell_angle_alpha   90.00000000
_cell_angle_beta   90.00000000
_cell_angle_gamma   90.00000000
_symmetry_Int_Tables_number   1
_chemical_formula_structural   Na5CoSO2
_chemical_formula_sum   'Na5 Co1 S1 O2'
_cell_volume   172.62382438
_cell_formula_units_Z   1
loop_
 _symmetry_equiv_pos_site_id
 _symmetry_equiv_pos_as_xyz
  1  'x, y, z'
loop_
 _atom_site_type_symbol
 _atom_site_label
 _atom_site_symmetry_multiplicity
 _atom_site_fract_x
 _atom_site_fract_y
 _atom_site_fract_z
 _atom_site_occupancy
  O  O0  1  0.000000  0.000000  0.218658  1
  O  O1  1  0.000000  0.000000  0.781342  1
  Na  Na2  1  0.000000  0.000000  0.500000  1
  Na  Na3  1  0.500000  0.000000  0.745657  1
  Na  Na4  1  0.000000  0.500000  0.254343  1
  Na  Na5  1  0.500000  0.000000  0.254343  1
  Na  Na6  1  0.000000  0.500000  0.745657  1
  S  S7  1  0.500000  0.500000  0.500000  1
  Co  Co8  1  0.000000  0.000000  0.000000  1
