# generated using pymatgen
data_Li6FeN4
_symmetry_space_group_name_H-M   'P 1'
_cell_length_a   6.47494404
_cell_length_b   6.47494404
_cell_length_c   4.89119938
_cell_angle_alpha   90.00000000
_cell_angle_beta   90.00000000
_cell_angle_gamma   90.00000000
_symmetry_Int_Tables_number   1
_chemical_formula_structural   Li6FeN4
_chemical_formula_sum   'Li12 Fe2 N8'
_cell_volume   205.06304646
_cell_formula_units_Z   2
loop_
 _symmetry_equiv_pos_site_id
 _symmetry_equiv_pos_as_xyz
  1  'x, y, z'
loop_
 _atom_site_type_symbol
 _atom_site_label
 _atom_site_symmetry_multiplicity
 _atom_site_fract_x
 _atom_site_fract_y
 _atom_site_fract_z
 _atom_site_occupancy
  Li  Li0  1  -0.000000  0.500000  0.611031  1
  Li  Li1  1  0.500000  -0.000000  0.888969  1
  Li  Li2  1  0.500000  -0.000000  0.388969  1
  Li  Li3  1  -0.000000  0.500000  0.111031  1
  Li  Li4  1  0.215105  0.215105  0.500000  1
  Li  Li5  1  0.784895  0.784895  0.500000  1
  Li  Li6  1  0.715105  0.715105  0.000000  1
  Li  Li7  1  0.284895  0.284895  0.000000  1
  Li  Li8  1  0.784895  0.215105  0.500000  1
  Li  Li9  1  0.215105  0.784895  0.500000  1
  Li  Li10  1  0.284895  0.715105  0.000000  1
  Li  Li11  1  0.715105  0.284895  0.000000  1
  Fe  Fe12  1  0.500000  0.500000  0.500000  1
  Fe  Fe13  1  -0.000000  -0.000000  0.000000  1
  N  N14  1  0.265140  0.500000  0.314673  1
  N  N15  1  0.734860  0.500000  0.314673  1
  N  N16  1  0.765140  -0.000000  0.185327  1
  N  N17  1  0.234860  -0.000000  0.185327  1
  N  N18  1  0.500000  0.265140  0.685327  1
  N  N19  1  0.500000  0.734860  0.685327  1
  N  N20  1  -0.000000  0.765140  0.814673  1
  N  N21  1  -0.000000  0.234860  0.814673  1
