# generated using pymatgen
data_Nb4CoSi
_symmetry_space_group_name_H-M   'P 1'
_cell_length_a   5.02169644
_cell_length_b   6.22370333
_cell_length_c   6.22370333
_cell_angle_alpha   90.00000000
_cell_angle_beta   90.00000000
_cell_angle_gamma   90.00000000
_symmetry_Int_Tables_number   1
_chemical_formula_structural   Nb4CoSi
_chemical_formula_sum   'Nb8 Co2 Si2'
_cell_volume   194.51281609
_cell_formula_units_Z   2
loop_
 _symmetry_equiv_pos_site_id
 _symmetry_equiv_pos_as_xyz
  1  'x, y, z'
loop_
 _atom_site_type_symbol
 _atom_site_label
 _atom_site_symmetry_multiplicity
 _atom_site_fract_x
 _atom_site_fract_y
 _atom_site_fract_z
 _atom_site_occupancy
  Si  Si0  1  0.750000  0.500000  0.500000  1
  Si  Si1  1  0.250000  0.500000  0.500000  1
  Co  Co2  1  0.750000  0.000000  0.000000  1
  Co  Co3  1  0.250000  0.000000  0.000000  1
  Nb  Nb4  1  0.500000  0.152416  0.333019  1
  Nb  Nb5  1  0.500000  0.847584  0.666981  1
  Nb  Nb6  1  0.500000  0.666981  0.152416  1
  Nb  Nb7  1  0.500000  0.333019  0.847584  1
  Nb  Nb8  1  0.000000  0.847584  0.333019  1
  Nb  Nb9  1  0.000000  0.666981  0.847584  1
  Nb  Nb10  1  0.000000  0.333019  0.152416  1
  Nb  Nb11  1  0.000000  0.152416  0.666981  1
