# generated using pymatgen
data_ZnSnO3
_symmetry_space_group_name_H-M   'P 1'
_cell_length_a   5.65912197
_cell_length_b   5.65912197
_cell_length_c   5.65912198
_cell_angle_alpha   56.42809557
_cell_angle_beta   56.42809559
_cell_angle_gamma   56.42809551
_symmetry_Int_Tables_number   1
_chemical_formula_structural   ZnSnO3
_chemical_formula_sum   'Zn2 Sn2 O6'
_cell_volume   117.57008747
_cell_formula_units_Z   2
loop_
 _symmetry_equiv_pos_site_id
 _symmetry_equiv_pos_as_xyz
  1  'x, y, z'
loop_
 _atom_site_type_symbol
 _atom_site_label
 _atom_site_symmetry_multiplicity
 _atom_site_fract_x
 _atom_site_fract_y
 _atom_site_fract_z
 _atom_site_occupancy
  O  O0  1  0.607106  0.212808  0.892769  1
  O  O1  1  0.212808  0.892769  0.607106  1
  O  O2  1  0.892769  0.607106  0.212808  1
  O  O3  1  0.392769  0.712808  0.107106  1
  O  O4  1  0.107106  0.392769  0.712808  1
  O  O5  1  0.712808  0.107106  0.392769  1
  Zn  Zn6  1  0.284072  0.284072  0.284072  1
  Zn  Zn7  1  0.784072  0.784072  0.784072  1
  Sn  Sn8  1  0.001844  0.001844  0.001844  1
  Sn  Sn9  1  0.501844  0.501844  0.501844  1
