# generated using pymatgen
data_Nb2Se
_symmetry_space_group_name_H-M   'P 1'
_cell_length_a   3.44737992
_cell_length_b   7.27119046
_cell_length_c   9.39914276
_cell_angle_alpha   92.32676019
_cell_angle_beta   90.00000000
_cell_angle_gamma   103.71293424
_symmetry_Int_Tables_number   1
_chemical_formula_structural   Nb2Se
_chemical_formula_sum   'Nb8 Se4'
_cell_volume   228.68844101
_cell_formula_units_Z   4
loop_
 _symmetry_equiv_pos_site_id
 _symmetry_equiv_pos_as_xyz
  1  'x, y, z'
loop_
 _atom_site_type_symbol
 _atom_site_label
 _atom_site_symmetry_multiplicity
 _atom_site_fract_x
 _atom_site_fract_y
 _atom_site_fract_z
 _atom_site_occupancy
  Se  Se0  1  0.575502  0.151004  0.185540  1
  Se  Se1  1  0.424498  0.848996  0.814460  1
  Se  Se2  1  0.859727  0.719454  0.138921  1
  Se  Se3  1  0.140273  0.280546  0.861079  1
  Nb  Nb4  1  0.413345  0.826690  0.354541  1
  Nb  Nb5  1  0.586655  0.173310  0.645459  1
  Nb  Nb6  1  0.256473  0.512945  0.622588  1
  Nb  Nb7  1  0.743527  0.487055  0.377412  1
  Nb  Nb8  1  0.915655  0.831309  0.600920  1
  Nb  Nb9  1  0.084345  0.168691  0.399080  1
  Nb  Nb10  1  0.783387  0.566774  0.875546  1
  Nb  Nb11  1  0.216613  0.433226  0.124454  1
