# generated using pymatgen
data_V3AsC
_symmetry_space_group_name_H-M   'P 1'
_cell_length_a   3.12437361
_cell_length_b   5.28997463
_cell_length_c   7.69775325
_cell_angle_alpha   90.00000000
_cell_angle_beta   90.00000000
_cell_angle_gamma   107.17617096
_symmetry_Int_Tables_number   1
_chemical_formula_structural   V3AsC
_chemical_formula_sum   'V6 As2 C2'
_cell_volume   121.55318617
_cell_formula_units_Z   2
loop_
 _symmetry_equiv_pos_site_id
 _symmetry_equiv_pos_as_xyz
  1  'x, y, z'
loop_
 _atom_site_type_symbol
 _atom_site_label
 _atom_site_symmetry_multiplicity
 _atom_site_fract_x
 _atom_site_fract_y
 _atom_site_fract_z
 _atom_site_occupancy
  V  V0  1  0.453325  0.906651  0.750000  1
  V  V1  1  0.126956  0.253913  0.949087  1
  V  V2  1  0.546675  0.093349  0.250000  1
  V  V3  1  0.126956  0.253913  0.550913  1
  V  V4  1  0.873044  0.746087  0.050913  1
  V  V5  1  0.873044  0.746087  0.449087  1
  As  As6  1  0.242737  0.485473  0.250000  1
  As  As7  1  0.757263  0.514527  0.750000  1
  C  C8  1  0.500000  0.000000  -0.000000  1
  C  C9  1  0.500000  0.000000  0.500000  1
