# generated using pymatgen
data_NaClO3
_symmetry_space_group_name_H-M   'P 1'
_cell_length_a   6.78779000
_cell_length_b   6.78779367
_cell_length_c   6.78780171
_cell_angle_alpha   90.00001249
_cell_angle_beta   90.00008880
_cell_angle_gamma   89.99993104
_symmetry_Int_Tables_number   1
_chemical_formula_structural   NaClO3
_chemical_formula_sum   'Na4 Cl4 O12'
_cell_volume   312.74197691
_cell_formula_units_Z   4
loop_
 _symmetry_equiv_pos_site_id
 _symmetry_equiv_pos_as_xyz
  1  'x, y, z'
loop_
 _atom_site_type_symbol
 _atom_site_label
 _atom_site_symmetry_multiplicity
 _atom_site_fract_x
 _atom_site_fract_y
 _atom_site_fract_z
 _atom_site_occupancy
  Na  Na0  1  0.060414  0.060417  0.060417  1
  Na  Na1  1  0.939591  0.560414  0.439587  1
  Na  Na2  1  0.439585  0.939588  0.560410  1
  Na  Na3  1  0.560421  0.439580  0.939577  1
  Cl  Cl4  1  0.953365  0.046635  0.546636  1
  Cl  Cl5  1  0.546634  0.953365  0.046636  1
  Cl  Cl6  1  0.453363  0.453365  0.453365  1
  Cl  Cl7  1  0.046635  0.546635  0.953366  1
  O  O8  1  0.106548  0.162839  0.435643  1
  O  O9  1  0.393451  0.837161  0.935641  1
  O  O10  1  0.837161  0.935642  0.393452  1
  O  O11  1  0.893452  0.662841  0.064358  1
  O  O12  1  0.337160  0.564357  0.606547  1
  O  O13  1  0.935640  0.393452  0.837161  1
  O  O14  1  0.064357  0.893451  0.662840  1
  O  O15  1  0.435641  0.106547  0.162840  1
  O  O16  1  0.162838  0.435642  0.106550  1
  O  O17  1  0.662839  0.064359  0.893453  1
  O  O18  1  0.606547  0.337160  0.564359  1
  O  O19  1  0.564357  0.606548  0.337162  1
