# generated using pymatgen
data_BaBrCl
_symmetry_space_group_name_H-M   'P 1'
_cell_length_a   5.05725973
_cell_length_b   8.13487641
_cell_length_c   10.34380453
_cell_angle_alpha   90.00000000
_cell_angle_beta   90.00000000
_cell_angle_gamma   90.00000000
_symmetry_Int_Tables_number   1
_chemical_formula_structural   BaBrCl
_chemical_formula_sum   'Ba4 Br4 Cl4'
_cell_volume   425.54601001
_cell_formula_units_Z   4
loop_
 _symmetry_equiv_pos_site_id
 _symmetry_equiv_pos_as_xyz
  1  'x, y, z'
loop_
 _atom_site_type_symbol
 _atom_site_label
 _atom_site_symmetry_multiplicity
 _atom_site_fract_x
 _atom_site_fract_y
 _atom_site_fract_z
 _atom_site_occupancy
  Ba  Ba0  1  0.750000  0.771246  0.907778  1
  Ba  Ba1  1  0.250000  0.228754  0.092222  1
  Ba  Ba2  1  0.750000  0.271246  0.592222  1
  Ba  Ba3  1  0.250000  0.728754  0.407778  1
  Br  Br4  1  0.750000  0.861869  0.594950  1
  Br  Br5  1  0.250000  0.138131  0.405050  1
  Br  Br6  1  0.750000  0.361869  0.905050  1
  Br  Br7  1  0.250000  0.638131  0.094950  1
  Cl  Cl8  1  0.750000  0.004584  0.145710  1
  Cl  Cl9  1  0.250000  0.995416  0.854290  1
  Cl  Cl10  1  0.750000  0.504584  0.354290  1
  Cl  Cl11  1  0.250000  0.495416  0.645710  1
