# generated using pymatgen
data_Sr(HO)2
_symmetry_space_group_name_H-M   'P 1'
_cell_length_a   10.04417482
_cell_length_b   6.14079710
_cell_length_c   3.99705123
_cell_angle_alpha   90.00000000
_cell_angle_beta   90.00000000
_cell_angle_gamma   90.00000000
_symmetry_Int_Tables_number   1
_chemical_formula_structural   Sr(HO)2
_chemical_formula_sum   'Sr4 H8 O8'
_cell_volume   246.53508053
_cell_formula_units_Z   4
loop_
 _symmetry_equiv_pos_site_id
 _symmetry_equiv_pos_as_xyz
  1  'x, y, z'
loop_
 _atom_site_type_symbol
 _atom_site_label
 _atom_site_symmetry_multiplicity
 _atom_site_fract_x
 _atom_site_fract_y
 _atom_site_fract_z
 _atom_site_occupancy
  Sr  Sr0  1  0.662493  0.414484  0.250000  1
  Sr  Sr1  1  0.162493  0.085516  0.250000  1
  Sr  Sr2  1  0.337507  0.585516  0.750000  1
  Sr  Sr3  1  0.837507  0.914484  0.750000  1
  H  H4  1  0.917369  0.325628  0.250000  1
  H  H5  1  0.417369  0.174372  0.250000  1
  H  H6  1  0.082631  0.674372  0.750000  1
  H  H7  1  0.582631  0.825628  0.750000  1
  H  H8  1  0.958616  0.667660  0.250000  1
  H  H9  1  0.458616  0.832340  0.250000  1
  H  H10  1  0.041384  0.332340  0.750000  1
  H  H11  1  0.541384  0.167660  0.750000  1
  O  O12  1  0.903905  0.167785  0.250000  1
  O  O13  1  0.403905  0.332215  0.250000  1
  O  O14  1  0.096095  0.832215  0.750000  1
  O  O15  1  0.596095  0.667785  0.750000  1
  O  O16  1  0.862195  0.654486  0.250000  1
  O  O17  1  0.362195  0.845514  0.250000  1
  O  O18  1  0.137805  0.345514  0.750000  1
  O  O19  1  0.637805  0.154486  0.750000  1
