# generated using pymatgen
data_Bi2O3
_symmetry_space_group_name_H-M   'P 1'
_cell_length_a   5.91885166
_cell_length_b   7.52629239
_cell_length_c   8.30786891
_cell_angle_alpha   90.00000000
_cell_angle_beta   90.00000000
_cell_angle_gamma   112.38523229
_symmetry_Int_Tables_number   1
_chemical_formula_structural   Bi2O3
_chemical_formula_sum   'Bi8 O12'
_cell_volume   342.20223179
_cell_formula_units_Z   4
loop_
 _symmetry_equiv_pos_site_id
 _symmetry_equiv_pos_as_xyz
  1  'x, y, z'
loop_
 _atom_site_type_symbol
 _atom_site_label
 _atom_site_symmetry_multiplicity
 _atom_site_fract_x
 _atom_site_fract_y
 _atom_site_fract_z
 _atom_site_occupancy
  Bi  Bi0  1  0.476090  0.135113  0.317144  1
  Bi  Bi1  1  0.039595  0.276448  0.541440  1
  Bi  Bi2  1  0.523910  0.364887  0.817144  1
  Bi  Bi3  1  0.960405  0.223552  0.041440  1
  Bi  Bi4  1  0.476090  0.635113  0.182856  1
  Bi  Bi5  1  0.523910  0.864887  0.682856  1
  Bi  Bi6  1  0.960405  0.723552  0.458560  1
  Bi  Bi7  1  0.039595  0.776448  0.958560  1
  O  O8  1  0.779423  0.206750  0.798558  1
  O  O9  1  0.731686  0.487856  0.031927  1
  O  O10  1  0.761682  0.876017  0.048325  1
  O  O11  1  0.731686  0.987856  0.468073  1
  O  O12  1  0.220577  0.293250  0.298558  1
  O  O13  1  0.268314  0.512144  0.968073  1
  O  O14  1  0.761682  0.376017  0.451675  1
  O  O15  1  0.220577  0.793250  0.201442  1
  O  O16  1  0.238318  0.623983  0.548325  1
  O  O17  1  0.779423  0.706750  0.701442  1
  O  O18  1  0.238318  0.123983  0.951675  1
  O  O19  1  0.268314  0.012144  0.531927  1
