# generated using pymatgen
data_HgTe
_symmetry_space_group_name_H-M   'P 1'
_cell_length_a   4.69871664
_cell_length_b   4.71444261
_cell_length_c   4.71444293
_cell_angle_alpha   59.82760036
_cell_angle_beta   60.09745820
_cell_angle_gamma   60.09745548
_symmetry_Int_Tables_number   1
_chemical_formula_structural   HgTe
_chemical_formula_sum   'Hg1 Te1'
_cell_volume   73.85713700
_cell_formula_units_Z   1
loop_
 _symmetry_equiv_pos_site_id
 _symmetry_equiv_pos_as_xyz
  1  'x, y, z'
loop_
 _atom_site_type_symbol
 _atom_site_label
 _atom_site_symmetry_multiplicity
 _atom_site_fract_x
 _atom_site_fract_y
 _atom_site_fract_z
 _atom_site_occupancy
  Hg  Hg0  1  0.249547  0.375015  0.375015  1
  Te  Te1  1  0.000453  0.124985  0.124985  1
