# generated using pymatgen
data_CoS2
_symmetry_space_group_name_H-M   'P 1'
_cell_length_a   5.50640071
_cell_length_b   5.50640071
_cell_length_c   5.50640071
_cell_angle_alpha   90.00000000
_cell_angle_beta   90.00000000
_cell_angle_gamma   90.00000000
_symmetry_Int_Tables_number   1
_chemical_formula_structural   CoS2
_chemical_formula_sum   'Co4 S8'
_cell_volume   166.95654068
_cell_formula_units_Z   4
loop_
 _symmetry_equiv_pos_site_id
 _symmetry_equiv_pos_as_xyz
  1  'x, y, z'
loop_
 _atom_site_type_symbol
 _atom_site_label
 _atom_site_symmetry_multiplicity
 _atom_site_fract_x
 _atom_site_fract_y
 _atom_site_fract_z
 _atom_site_occupancy
  S  S0  1  0.387893  0.112107  0.887893  1
  S  S1  1  0.112107  0.887893  0.387893  1
  S  S2  1  0.887893  0.387893  0.112107  1
  S  S3  1  0.612107  0.612107  0.612107  1
  S  S4  1  0.387893  0.387893  0.387893  1
  S  S5  1  0.112107  0.612107  0.887893  1
  S  S6  1  0.887893  0.112107  0.612107  1
  S  S7  1  0.612107  0.887893  0.112107  1
  Co  Co8  1  0.000000  0.500000  0.500000  1
  Co  Co9  1  0.500000  0.500000  0.000000  1
  Co  Co10  1  0.500000  0.000000  0.500000  1
  Co  Co11  1  0.000000  0.000000  0.000000  1
