# generated using pymatgen
data_NiSbS
_symmetry_space_group_name_H-M   'P 1'
_cell_length_a   5.94479200
_cell_length_b   5.94479200
_cell_length_c   5.94479200
_cell_angle_alpha   90.00000000
_cell_angle_beta   90.00000000
_cell_angle_gamma   90.00000000
_symmetry_Int_Tables_number   1
_chemical_formula_structural   NiSbS
_chemical_formula_sum   'Ni4 Sb4 S4'
_cell_volume   210.09223035
_cell_formula_units_Z   4
loop_
 _symmetry_equiv_pos_site_id
 _symmetry_equiv_pos_as_xyz
  1  'x, y, z'
loop_
 _atom_site_type_symbol
 _atom_site_label
 _atom_site_symmetry_multiplicity
 _atom_site_fract_x
 _atom_site_fract_y
 _atom_site_fract_z
 _atom_site_occupancy
  S  S0  1  0.380642  0.119358  0.880642  1
  S  S1  1  0.880642  0.380642  0.119358  1
  S  S2  1  0.119358  0.880642  0.380642  1
  S  S3  1  0.619358  0.619358  0.619358  1
  Ni  Ni4  1  0.519894  0.480106  0.980106  1
  Ni  Ni5  1  0.480106  0.980106  0.519894  1
  Ni  Ni6  1  0.019894  0.019894  0.019894  1
  Ni  Ni7  1  0.980106  0.519894  0.480106  1
  Sb  Sb8  1  0.629837  0.870163  0.129837  1
  Sb  Sb9  1  0.129837  0.629837  0.870163  1
  Sb  Sb10  1  0.370163  0.370163  0.370163  1
  Sb  Sb11  1  0.870163  0.129837  0.629837  1
