# generated using pymatgen
data_NiAsS
_symmetry_space_group_name_H-M   'P 1'
_cell_length_a   5.69590406
_cell_length_b   5.69590406
_cell_length_c   5.69590406
_cell_angle_alpha   90.00000000
_cell_angle_beta   90.00000000
_cell_angle_gamma   90.00000000
_symmetry_Int_Tables_number   1
_chemical_formula_structural   NiAsS
_chemical_formula_sum   'Ni4 As4 S4'
_cell_volume   184.79405554
_cell_formula_units_Z   4
loop_
 _symmetry_equiv_pos_site_id
 _symmetry_equiv_pos_as_xyz
  1  'x, y, z'
loop_
 _atom_site_type_symbol
 _atom_site_label
 _atom_site_symmetry_multiplicity
 _atom_site_fract_x
 _atom_site_fract_y
 _atom_site_fract_z
 _atom_site_occupancy
  S  S0  1  0.615870  0.884130  0.115870  1
  S  S1  1  0.115870  0.615870  0.884130  1
  S  S2  1  0.884130  0.115870  0.615870  1
  S  S3  1  0.384130  0.384130  0.384130  1
  Ni  Ni4  1  0.493064  0.506936  0.006936  1
  Ni  Ni5  1  0.506936  0.006936  0.493064  1
  Ni  Ni6  1  0.993064  0.993064  0.993064  1
  Ni  Ni7  1  0.006936  0.493064  0.506936  1
  As  As8  1  0.379190  0.120810  0.879190  1
  As  As9  1  0.879190  0.379190  0.120810  1
  As  As10  1  0.620810  0.620810  0.620810  1
  As  As11  1  0.120810  0.879190  0.379190  1
