# generated using pymatgen
data_Ti3Pt5
_symmetry_space_group_name_H-M   'P 1'
_cell_length_a   5.49677550
_cell_length_b   7.42990094
_cell_length_c   7.42990168
_cell_angle_alpha   67.35829819
_cell_angle_beta   68.28999103
_cell_angle_gamma   68.28999324
_symmetry_Int_Tables_number   1
_chemical_formula_structural   Ti3Pt5
_chemical_formula_sum   'Ti6 Pt10'
_cell_volume   250.86452005
_cell_formula_units_Z   2
loop_
 _symmetry_equiv_pos_site_id
 _symmetry_equiv_pos_as_xyz
  1  'x, y, z'
loop_
 _atom_site_type_symbol
 _atom_site_label
 _atom_site_symmetry_multiplicity
 _atom_site_fract_x
 _atom_site_fract_y
 _atom_site_fract_z
 _atom_site_occupancy
  Pt  Pt0  1  0.500000  0.250000  0.750000  1
  Pt  Pt1  1  0.500000  0.750000  0.250000  1
  Pt  Pt2  1  0.756343  0.993657  0.493657  1
  Pt  Pt3  1  0.243657  0.506343  0.006343  1
  Pt  Pt4  1  0.243657  0.006343  0.506343  1
  Pt  Pt5  1  0.756343  0.493657  0.993657  1
  Pt  Pt6  1  0.108570  0.104702  0.104702  1
  Pt  Pt7  1  0.317973  0.395298  0.395298  1
  Pt  Pt8  1  0.891430  0.895298  0.895298  1
  Pt  Pt9  1  0.682027  0.604702  0.604702  1
  Ti  Ti10  1  0.000000  0.750000  0.250000  1
  Ti  Ti11  1  0.000000  0.250000  0.750000  1
  Ti  Ti12  1  0.566684  0.144409  0.144409  1
  Ti  Ti13  1  0.855503  0.355591  0.355591  1
  Ti  Ti14  1  0.433316  0.855591  0.855591  1
  Ti  Ti15  1  0.144497  0.644409  0.644409  1
