# generated using pymatgen
data_PbSO4
_symmetry_space_group_name_H-M   'P 1'
_cell_length_a   5.53549310
_cell_length_b   7.07806803
_cell_length_c   8.52292265
_cell_angle_alpha   90.00000000
_cell_angle_beta   90.00000000
_cell_angle_gamma   90.00000000
_symmetry_Int_Tables_number   1
_chemical_formula_structural   PbSO4
_chemical_formula_sum   'Pb4 S4 O16'
_cell_volume   333.93319541
_cell_formula_units_Z   4
loop_
 _symmetry_equiv_pos_site_id
 _symmetry_equiv_pos_as_xyz
  1  'x, y, z'
loop_
 _atom_site_type_symbol
 _atom_site_label
 _atom_site_symmetry_multiplicity
 _atom_site_fract_x
 _atom_site_fract_y
 _atom_site_fract_z
 _atom_site_occupancy
  O  O0  1  0.750000  0.405147  0.094581  1
  O  O1  1  0.250000  0.594853  0.905419  1
  O  O2  1  0.250000  0.905147  0.405419  1
  O  O3  1  0.750000  0.094853  0.594581  1
  O  O4  1  0.470911  0.803918  0.080682  1
  O  O5  1  0.970911  0.196082  0.919318  1
  O  O6  1  0.529089  0.303918  0.419318  1
  O  O7  1  0.029089  0.696082  0.580682  1
  O  O8  1  0.750000  0.038158  0.308330  1
  O  O9  1  0.250000  0.961842  0.691670  1
  O  O10  1  0.250000  0.538158  0.191670  1
  O  O11  1  0.750000  0.461842  0.808330  1
  O  O12  1  0.970911  0.303918  0.419318  1
  O  O13  1  0.470911  0.696082  0.580682  1
  O  O14  1  0.029089  0.803918  0.080682  1
  O  O15  1  0.529089  0.196082  0.919318  1
  S  S16  1  0.750000  0.319264  0.937240  1
  S  S17  1  0.250000  0.680736  0.062760  1
  S  S18  1  0.250000  0.819264  0.562760  1
  S  S19  1  0.750000  0.180736  0.437240  1
  Pb  Pb20  1  0.250000  0.329895  0.693419  1
  Pb  Pb21  1  0.750000  0.670105  0.306581  1
  Pb  Pb22  1  0.750000  0.829895  0.806581  1
  Pb  Pb23  1  0.250000  0.170105  0.193419  1
