# generated using pymatgen
data_CaIrO3
_symmetry_space_group_name_H-M   'P 1'
_cell_length_a   3.21524639
_cell_length_b   5.19151016
_cell_length_c   7.37081293
_cell_angle_alpha   90.00000000
_cell_angle_beta   90.00000000
_cell_angle_gamma   108.03897577
_symmetry_Int_Tables_number   1
_chemical_formula_structural   CaIrO3
_chemical_formula_sum   'Ca2 Ir2 O6'
_cell_volume   116.98591580
_cell_formula_units_Z   2
loop_
 _symmetry_equiv_pos_site_id
 _symmetry_equiv_pos_as_xyz
  1  'x, y, z'
loop_
 _atom_site_type_symbol
 _atom_site_label
 _atom_site_symmetry_multiplicity
 _atom_site_fract_x
 _atom_site_fract_y
 _atom_site_fract_z
 _atom_site_occupancy
  O  O0  1  0.375162  0.750324  0.949656  1
  O  O1  1  0.624838  0.249676  0.050344  1
  O  O2  1  0.624838  0.249676  0.449656  1
  O  O3  1  0.375162  0.750324  0.550344  1
  O  O4  1  0.079532  0.159063  0.750000  1
  O  O5  1  0.920468  0.840937  0.250000  1
  Ca  Ca6  1  0.750663  0.501326  0.750000  1
  Ca  Ca7  1  0.249337  0.498674  0.250000  1
  Ir  Ir8  1  0.000000  0.000000  0.000000  1
  Ir  Ir9  1  0.000000  0.000000  0.500000  1
