# generated using pymatgen
data_NiP2
_symmetry_space_group_name_H-M   'P 1'
_cell_length_a   4.28133485
_cell_length_b   4.28133485
_cell_length_c   5.62360268
_cell_angle_alpha   68.16116474
_cell_angle_beta   68.16116476
_cell_angle_gamma   81.79898364
_symmetry_Int_Tables_number   1
_chemical_formula_structural   NiP2
_chemical_formula_sum   'Ni2 P4'
_cell_volume   88.81422933
_cell_formula_units_Z   2
loop_
 _symmetry_equiv_pos_site_id
 _symmetry_equiv_pos_as_xyz
  1  'x, y, z'
loop_
 _atom_site_type_symbol
 _atom_site_label
 _atom_site_symmetry_multiplicity
 _atom_site_fract_x
 _atom_site_fract_y
 _atom_site_fract_z
 _atom_site_occupancy
  P  P0  1  0.918390  0.188906  0.333647  1
  P  P1  1  0.311094  0.581610  0.166353  1
  P  P2  1  0.688906  0.418390  0.833647  1
  P  P3  1  0.081610  0.811094  0.666353  1
  Ni  Ni4  1  0.500000  0.500000  0.500000  1
  Ni  Ni5  1  0.000000  0.000000  0.000000  1
