# generated using pymatgen
data_SiO2
_symmetry_space_group_name_H-M   'P 1'
_cell_length_a   5.06459772
_cell_length_b   5.08228974
_cell_length_c   7.03829278
_cell_angle_alpha   90.00000000
_cell_angle_beta   90.00000000
_cell_angle_gamma   90.00000000
_symmetry_Int_Tables_number   1
_chemical_formula_structural   SiO2
_chemical_formula_sum   'Si4 O8'
_cell_volume   181.16391791
_cell_formula_units_Z   4
loop_
 _symmetry_equiv_pos_site_id
 _symmetry_equiv_pos_as_xyz
  1  'x, y, z'
loop_
 _atom_site_type_symbol
 _atom_site_label
 _atom_site_symmetry_multiplicity
 _atom_site_fract_x
 _atom_site_fract_y
 _atom_site_fract_z
 _atom_site_occupancy
  Si  Si0  1  0.999571  0.045523  0.624829  1
  Si  Si1  1  0.499571  0.454477  0.124829  1
  Si  Si2  1  0.499571  0.954477  0.375171  1
  Si  Si3  1  0.999571  0.545523  0.875171  1
  O  O4  1  0.447258  0.655751  0.301010  1
  O  O5  1  0.947258  0.344249  0.698990  1
  O  O6  1  0.447258  0.155751  0.198990  1
  O  O7  1  0.303181  0.515959  0.947686  1
  O  O8  1  0.803181  0.984041  0.447686  1
  O  O9  1  0.947258  0.844249  0.801010  1
  O  O10  1  0.303181  0.015959  0.552314  1
  O  O11  1  0.803181  0.484041  0.052314  1
