# generated using pymatgen
data_LiMnF4
_symmetry_space_group_name_H-M   'P 1'
_cell_length_a   4.72996351
_cell_length_b   5.52976773
_cell_length_c   5.81120510
_cell_angle_alpha   113.40775707
_cell_angle_beta   90.00000000
_cell_angle_gamma   90.00000000
_symmetry_Int_Tables_number   1
_chemical_formula_structural   LiMnF4
_chemical_formula_sum   'Li2 Mn2 F8'
_cell_volume   139.48644871
_cell_formula_units_Z   2
loop_
 _symmetry_equiv_pos_site_id
 _symmetry_equiv_pos_as_xyz
  1  'x, y, z'
loop_
 _atom_site_type_symbol
 _atom_site_label
 _atom_site_symmetry_multiplicity
 _atom_site_fract_x
 _atom_site_fract_y
 _atom_site_fract_z
 _atom_site_occupancy
  Li  Li0  1  0.500000  0.500000  0.000000  1
  Li  Li1  1  0.000000  0.500000  0.500000  1
  F  F2  1  0.217187  0.148380  0.359082  1
  F  F3  1  0.181129  0.673830  0.857509  1
  F  F4  1  0.782813  0.851620  0.640918  1
  F  F5  1  0.717187  0.851620  0.140918  1
  F  F6  1  0.282813  0.148380  0.859082  1
  F  F7  1  0.818870  0.326170  0.142491  1
  F  F8  1  0.318871  0.673830  0.357509  1
  F  F9  1  0.681130  0.326170  0.642491  1
  Mn  Mn10  1  0.000000  0.000000  0.000000  1
  Mn  Mn11  1  0.500000  0.000000  0.500000  1
