# generated using pymatgen
data_TiCu3O4
_symmetry_space_group_name_H-M   'P 1'
_cell_length_a   6.08102332
_cell_length_b   6.08102372
_cell_length_c   17.07559036
_cell_angle_alpha   24.58480358
_cell_angle_beta   24.58479968
_cell_angle_gamma   28.30368387
_symmetry_Int_Tables_number   1
_chemical_formula_structural   TiCu3O4
_chemical_formula_sum   'Ti1 Cu3 O4'
_cell_volume   103.93534036
_cell_formula_units_Z   1
loop_
 _symmetry_equiv_pos_site_id
 _symmetry_equiv_pos_as_xyz
  1  'x, y, z'
loop_
 _atom_site_type_symbol
 _atom_site_label
 _atom_site_symmetry_multiplicity
 _atom_site_fract_x
 _atom_site_fract_y
 _atom_site_fract_z
 _atom_site_occupancy
  Ti  Ti0  1  0.431513  0.431513  0.874743  1
  Cu  Cu1  1  0.970289  0.970289  0.025078  1
  Cu  Cu2  1  0.023178  0.023178  0.644844  1
  Cu  Cu3  1  0.646767  0.646767  0.407570  1
  O  O4  1  0.012433  0.012433  0.104268  1
  O  O5  1  0.115134  0.115134  0.690756  1
  O  O6  1  0.947645  0.947645  0.588072  1
  O  O7  1  0.853040  0.853040  0.998001  1
