# generated using pymatgen
data_SrYSi4N7
_symmetry_space_group_name_H-M   'P 1'
_cell_length_a   6.06146910
_cell_length_b   6.06146910
_cell_length_c   9.88814405
_cell_angle_alpha   90.00000000
_cell_angle_beta   90.00000000
_cell_angle_gamma   119.99999998
_symmetry_Int_Tables_number   1
_chemical_formula_structural   SrYSi4N7
_chemical_formula_sum   'Sr2 Y2 Si8 N14'
_cell_volume   314.63078065
_cell_formula_units_Z   2
loop_
 _symmetry_equiv_pos_site_id
 _symmetry_equiv_pos_as_xyz
  1  'x, y, z'
loop_
 _atom_site_type_symbol
 _atom_site_label
 _atom_site_symmetry_multiplicity
 _atom_site_fract_x
 _atom_site_fract_y
 _atom_site_fract_z
 _atom_site_occupancy
  N  N0  1  0.000000  0.000000  0.836700  1
  N  N1  1  0.000000  0.000000  0.336700  1
  N  N2  1  0.847103  0.694206  0.087289  1
  N  N3  1  0.152897  0.847103  0.587289  1
  N  N4  1  0.694206  0.847103  0.587289  1
  N  N5  1  0.305794  0.152897  0.087289  1
  N  N6  1  0.847103  0.152897  0.087289  1
  N  N7  1  0.152897  0.305794  0.587289  1
  N  N8  1  0.488442  0.511558  0.811767  1
  N  N9  1  0.976885  0.488442  0.311767  1
  N  N10  1  0.511558  0.023115  0.311767  1
  N  N11  1  0.488442  0.976885  0.811767  1
  N  N12  1  0.511558  0.488442  0.311767  1
  N  N13  1  0.023115  0.511558  0.811767  1
  Si  Si14  1  0.173976  0.347951  0.759849  1
  Si  Si15  1  0.826024  0.173976  0.259849  1
  Si  Si16  1  0.347951  0.173976  0.259849  1
  Si  Si17  1  0.652049  0.826024  0.759849  1
  Si  Si18  1  0.173976  0.826024  0.759849  1
  Si  Si19  1  0.826024  0.652049  0.259849  1
  Si  Si20  1  0.000000  0.000000  0.027465  1
  Si  Si21  1  0.000000  0.000000  0.527465  1
  Sr  Sr22  1  0.666667  0.333333  0.581408  1
  Sr  Sr23  1  0.333333  0.666667  0.081408  1
  Y  Y24  1  0.666667  0.333333  0.950533  1
  Y  Y25  1  0.333333  0.666667  0.450533  1
