# generated using pymatgen
data_Fe2Re3
_symmetry_space_group_name_H-M   'P 1'
_cell_length_a   6.41765214
_cell_length_b   6.41759996
_cell_length_c   6.41770650
_cell_angle_alpha   89.99255579
_cell_angle_beta   90.00021447
_cell_angle_gamma   90.00072691
_symmetry_Int_Tables_number   1
_chemical_formula_structural   Fe2Re3
_chemical_formula_sum   'Fe8 Re12'
_cell_volume   264.31917096
_cell_formula_units_Z   4
loop_
 _symmetry_equiv_pos_site_id
 _symmetry_equiv_pos_as_xyz
  1  'x, y, z'
loop_
 _atom_site_type_symbol
 _atom_site_label
 _atom_site_symmetry_multiplicity
 _atom_site_fract_x
 _atom_site_fract_y
 _atom_site_fract_z
 _atom_site_occupancy
  Fe  Fe0  1  0.440833  0.940823  0.559141  1
  Fe  Fe1  1  0.309130  0.190858  0.809166  1
  Fe  Fe2  1  0.690777  0.690804  0.690789  1
  Fe  Fe3  1  0.559190  0.440844  0.940860  1
  Fe  Fe4  1  0.809163  0.309205  0.190833  1
  Fe  Fe5  1  0.059154  0.059140  0.059148  1
  Fe  Fe6  1  0.940842  0.559214  0.440756  1
  Fe  Fe7  1  0.190911  0.809066  0.309104  1
  Re  Re8  1  0.052103  0.874930  0.697913  1
  Re  Re9  1  0.697891  0.052072  0.875065  1
  Re  Re10  1  0.124997  0.197898  0.447928  1
  Re  Re11  1  0.802115  0.947884  0.374979  1
  Re  Re12  1  0.375035  0.802103  0.947911  1
  Re  Re13  1  0.552087  0.625027  0.302106  1
  Re  Re14  1  0.197904  0.447928  0.124972  1
  Re  Re15  1  0.947905  0.375081  0.802137  1
  Re  Re16  1  0.302099  0.552151  0.625057  1
  Re  Re17  1  0.447898  0.124972  0.197900  1
  Re  Re18  1  0.874970  0.697883  0.052124  1
  Re  Re19  1  0.624994  0.302118  0.552111  1
