# generated using pymatgen
data_NaCuO
_symmetry_space_group_name_H-M   'P 1'
_cell_length_a   4.72798341
_cell_length_b   6.70061114
_cell_length_c   6.70061113
_cell_angle_alpha   82.84987682
_cell_angle_beta   69.34118129
_cell_angle_gamma   69.34118129
_symmetry_Int_Tables_number   1
_chemical_formula_structural   NaCuO
_chemical_formula_sum   'Na4 Cu4 O4'
_cell_volume   185.85576462
_cell_formula_units_Z   4
loop_
 _symmetry_equiv_pos_site_id
 _symmetry_equiv_pos_as_xyz
  1  'x, y, z'
loop_
 _atom_site_type_symbol
 _atom_site_label
 _atom_site_symmetry_multiplicity
 _atom_site_fract_x
 _atom_site_fract_y
 _atom_site_fract_z
 _atom_site_occupancy
  O  O0  1  0.544570  0.205704  0.205155  1
  O  O1  1  0.249725  0.794845  0.205704  1
  O  O2  1  0.250275  0.205155  0.794296  1
  O  O3  1  0.955430  0.794296  0.794845  1
  Na  Na4  1  0.750175  0.174043  0.825607  1
  Na  Na5  1  0.749825  0.825957  0.174393  1
  Na  Na6  1  0.424218  0.825607  0.825957  1
  Na  Na7  1  0.075782  0.174393  0.174043  1
  Cu  Cu8  1  0.398816  0.202626  0.499741  1
  Cu  Cu9  1  0.398557  0.500259  0.202626  1
  Cu  Cu10  1  0.101184  0.797374  0.500259  1
  Cu  Cu11  1  0.101443  0.499741  0.797374  1
