# generated using pymatgen
data_SiC
_symmetry_space_group_name_H-M   'P 1'
_cell_length_a   3.09488410
_cell_length_b   3.09488410
_cell_length_c   15.18453125
_cell_angle_alpha   90.00000000
_cell_angle_beta   90.00000000
_cell_angle_gamma   120.00000002
_symmetry_Int_Tables_number   1
_chemical_formula_structural   SiC
_chemical_formula_sum   'Si6 C6'
_cell_volume   125.95656276
_cell_formula_units_Z   6
loop_
 _symmetry_equiv_pos_site_id
 _symmetry_equiv_pos_as_xyz
  1  'x, y, z'
loop_
 _atom_site_type_symbol
 _atom_site_label
 _atom_site_symmetry_multiplicity
 _atom_site_fract_x
 _atom_site_fract_y
 _atom_site_fract_z
 _atom_site_occupancy
  C  C0  1  0.000000  0.000000  0.874352  1
  C  C1  1  0.000000  0.000000  0.374352  1
  C  C2  1  0.333333  0.666667  0.708004  1
  C  C3  1  0.666667  0.333333  0.208004  1
  C  C4  1  0.666667  0.333333  0.541526  1
  C  C5  1  0.333333  0.666667  0.041526  1
  Si  Si6  1  0.333333  0.666667  0.832986  1
  Si  Si7  1  0.666667  0.333333  0.332986  1
  Si  Si8  1  0.666667  0.333333  0.666509  1
  Si  Si9  1  0.333333  0.666667  0.166509  1
  Si  Si10  1  0.000000  0.000000  0.499723  1
  Si  Si11  1  0.000000  0.000000  0.999723  1
