# generated using pymatgen
data_RbN3
_symmetry_space_group_name_H-M   'P 1'
_cell_length_a   5.94674965
_cell_length_b   5.94674966
_cell_length_c   5.94674965
_cell_angle_alpha   99.67820048
_cell_angle_beta   114.57870516
_cell_angle_gamma   114.57870524
_symmetry_Int_Tables_number   1
_chemical_formula_structural   RbN3
_chemical_formula_sum   'Rb2 N6'
_cell_volume   158.43135772
_cell_formula_units_Z   2
loop_
 _symmetry_equiv_pos_site_id
 _symmetry_equiv_pos_as_xyz
  1  'x, y, z'
loop_
 _atom_site_type_symbol
 _atom_site_label
 _atom_site_symmetry_multiplicity
 _atom_site_fract_x
 _atom_site_fract_y
 _atom_site_fract_z
 _atom_site_occupancy
  N  N0  1  0.500000  0.000000  0.500000  1
  N  N1  1  0.500000  0.500000  0.000000  1
  N  N2  1  0.761664  0.630832  0.130832  1
  N  N3  1  0.500000  0.130832  0.369168  1
  N  N4  1  0.500000  0.869168  0.630832  1
  N  N5  1  0.238336  0.369168  0.869168  1
  Rb  Rb6  1  0.000000  0.750000  0.750000  1
  Rb  Rb7  1  0.000000  0.250000  0.250000  1
