# generated using pymatgen
data_Sc2CuPt
_symmetry_space_group_name_H-M   'P 1'
_cell_length_a   4.62870796
_cell_length_b   4.62870796
_cell_length_c   4.62870796
_cell_angle_alpha   60.00000000
_cell_angle_beta   60.00000000
_cell_angle_gamma   60.00000000
_symmetry_Int_Tables_number   1
_chemical_formula_structural   Sc2CuPt
_chemical_formula_sum   'Sc2 Cu1 Pt1'
_cell_volume   70.12362286
_cell_formula_units_Z   1
loop_
 _symmetry_equiv_pos_site_id
 _symmetry_equiv_pos_as_xyz
  1  'x, y, z'
loop_
 _atom_site_type_symbol
 _atom_site_label
 _atom_site_symmetry_multiplicity
 _atom_site_fract_x
 _atom_site_fract_y
 _atom_site_fract_z
 _atom_site_occupancy
  Sc  Sc0  1  0.000000  0.000000  0.000000  1
  Sc  Sc1  1  0.499998  0.499998  0.499998  1
  Cu  Cu2  1  0.250001  0.250001  0.250001  1
  Pt  Pt3  1  0.750001  0.750001  0.750001  1
