# generated using pymatgen
data_Li3Ga2
_symmetry_space_group_name_H-M   'P 1'
_cell_length_a   5.26887833
_cell_length_b   5.26887833
_cell_length_c   5.26887833
_cell_angle_alpha   48.91059282
_cell_angle_beta   48.91059287
_cell_angle_gamma   48.91059285
_symmetry_Int_Tables_number   1
_chemical_formula_structural   Li3Ga2
_chemical_formula_sum   'Li3 Ga2'
_cell_volume   76.27386758
_cell_formula_units_Z   1
loop_
 _symmetry_equiv_pos_site_id
 _symmetry_equiv_pos_as_xyz
  1  'x, y, z'
loop_
 _atom_site_type_symbol
 _atom_site_label
 _atom_site_symmetry_multiplicity
 _atom_site_fract_x
 _atom_site_fract_y
 _atom_site_fract_z
 _atom_site_occupancy
  Li  Li0  1  0.596550  0.596550  0.596550  1
  Li  Li1  1  0.403450  0.403450  0.403450  1
  Li  Li2  1  0.000000  0.000000  0.000000  1
  Ga  Ga3  1  0.201881  0.201881  0.201881  1
  Ga  Ga4  1  0.798119  0.798119  0.798119  1
