# generated using pymatgen
data_GeSb
_symmetry_space_group_name_H-M   'P 1'
_cell_length_a   4.11569783
_cell_length_b   4.11569782
_cell_length_c   4.11707178
_cell_angle_alpha   119.98896122
_cell_angle_beta   119.98896129
_cell_angle_gamma   89.99999999
_symmetry_Int_Tables_number   1
_chemical_formula_structural   GeSb
_chemical_formula_sum   'Ge1 Sb1'
_cell_volume   49.32933535
_cell_formula_units_Z   1
loop_
 _symmetry_equiv_pos_site_id
 _symmetry_equiv_pos_as_xyz
  1  'x, y, z'
loop_
 _atom_site_type_symbol
 _atom_site_label
 _atom_site_symmetry_multiplicity
 _atom_site_fract_x
 _atom_site_fract_y
 _atom_site_fract_z
 _atom_site_occupancy
  Ge  Ge0  1  0.000000  0.000000  0.000000  1
  Sb  Sb1  1  0.500000  0.500000  0.000000  1
