# generated using pymatgen
data_V2B3
_symmetry_space_group_name_H-M   'P 1'
_cell_length_a   2.98263956
_cell_length_b   3.04007988
_cell_length_c   9.33288733
_cell_angle_alpha   99.37347462
_cell_angle_beta   90.00000000
_cell_angle_gamma   90.00000000
_symmetry_Int_Tables_number   1
_chemical_formula_structural   V2B3
_chemical_formula_sum   'V4 B6'
_cell_volume   83.49565675
_cell_formula_units_Z   2
loop_
 _symmetry_equiv_pos_site_id
 _symmetry_equiv_pos_as_xyz
  1  'x, y, z'
loop_
 _atom_site_type_symbol
 _atom_site_label
 _atom_site_symmetry_multiplicity
 _atom_site_fract_x
 _atom_site_fract_y
 _atom_site_fract_z
 _atom_site_occupancy
  B  B0  1  0.250000  0.168772  0.337543  1
  B  B1  1  0.750000  0.831228  0.662457  1
  B  B2  1  0.250000  0.882317  0.764634  1
  B  B3  1  0.750000  0.117683  0.235366  1
  B  B4  1  0.750000  0.023607  0.047215  1
  B  B5  1  0.250000  0.976393  0.952785  1
  V  V6  1  0.250000  0.294935  0.589870  1
  V  V7  1  0.750000  0.705065  0.410130  1
  V  V8  1  0.250000  0.570604  0.141207  1
  V  V9  1  0.750000  0.429396  0.858793  1
