# generated using pymatgen
data_TiNiSn
_symmetry_space_group_name_H-M   'P 1'
_cell_length_a   4.17256766
_cell_length_b   4.17257705
_cell_length_c   4.17257046
_cell_angle_alpha   59.99879300
_cell_angle_beta   59.99964074
_cell_angle_gamma   59.99900674
_symmetry_Int_Tables_number   1
_chemical_formula_structural   TiNiSn
_chemical_formula_sum   'Ti1 Ni1 Sn1'
_cell_volume   51.36745308
_cell_formula_units_Z   1
loop_
 _symmetry_equiv_pos_site_id
 _symmetry_equiv_pos_as_xyz
  1  'x, y, z'
loop_
 _atom_site_type_symbol
 _atom_site_label
 _atom_site_symmetry_multiplicity
 _atom_site_fract_x
 _atom_site_fract_y
 _atom_site_fract_z
 _atom_site_occupancy
  Ti  Ti0  1  0.999995  -0.000005  0.000000  1
  Ni  Ni1  1  0.250009  0.250004  0.250001  1
  Sn  Sn2  1  0.499996  0.500001  0.499999  1
