# generated using pymatgen
data_TiO2
_symmetry_space_group_name_H-M   'P 1'
_cell_length_a   5.89469813
_cell_length_b   6.02155647
_cell_length_c   6.02155617
_cell_angle_alpha   59.99999550
_cell_angle_beta   59.28550706
_cell_angle_gamma   59.28551207
_symmetry_Int_Tables_number   1
_chemical_formula_structural   TiO2
_chemical_formula_sum   'Ti4 O8'
_cell_volume   149.48185578
_cell_formula_units_Z   4
loop_
 _symmetry_equiv_pos_site_id
 _symmetry_equiv_pos_as_xyz
  1  'x, y, z'
loop_
 _atom_site_type_symbol
 _atom_site_label
 _atom_site_symmetry_multiplicity
 _atom_site_fract_x
 _atom_site_fract_y
 _atom_site_fract_z
 _atom_site_occupancy
  Ti  Ti0  1  0.272958  0.242348  0.242348  1
  Ti  Ti1  1  0.638691  0.099237  0.631036  1
  Ti  Ti2  1  0.638691  0.631036  0.099236  1
  Ti  Ti3  1  0.638691  0.631036  0.631036  1
  O  O4  1  0.399017  0.365406  0.365406  1
  O  O5  1  0.399017  0.365406  0.870169  1
  O  O6  1  0.399017  0.870169  0.365406  1
  O  O7  1  0.853217  0.382261  0.382261  1
  O  O8  1  0.404261  0.865246  0.865246  1
  O  O9  1  0.829597  0.423051  0.873676  1
  O  O10  1  0.829597  0.873676  0.423051  1
  O  O11  1  0.829597  0.873676  0.873676  1
