# generated using pymatgen
data_MgMn2O4
_symmetry_space_group_name_H-M   'P 1'
_cell_length_a   3.00985716
_cell_length_b   9.61985401
_cell_length_c   9.91761679
_cell_angle_alpha   89.99988183
_cell_angle_beta   89.99959696
_cell_angle_gamma   89.99982516
_symmetry_Int_Tables_number   1
_chemical_formula_structural   MgMn2O4
_chemical_formula_sum   'Mg4 Mn8 O16'
_cell_volume   287.15850940
_cell_formula_units_Z   4
loop_
 _symmetry_equiv_pos_site_id
 _symmetry_equiv_pos_as_xyz
  1  'x, y, z'
loop_
 _atom_site_type_symbol
 _atom_site_label
 _atom_site_symmetry_multiplicity
 _atom_site_fract_x
 _atom_site_fract_y
 _atom_site_fract_z
 _atom_site_occupancy
  Mg  Mg0  1  0.326881  0.750002  0.146735  1
  Mg  Mg1  1  0.326862  0.249999  0.353270  1
  Mg  Mg2  1  0.673120  0.749998  0.646733  1
  Mg  Mg3  1  0.673130  0.250000  0.853270  1
  Mn  Mn4  1  0.797338  0.570846  0.384624  1
  Mn  Mn5  1  0.797338  0.070846  0.115366  1
  Mn  Mn6  1  0.202668  0.070846  0.615376  1
  Mn  Mn7  1  0.797330  0.429157  0.115372  1
  Mn  Mn8  1  0.202676  0.429157  0.615369  1
  Mn  Mn9  1  0.797339  0.929151  0.384626  1
  Mn  Mn10  1  0.202660  0.929152  0.884629  1
  Mn  Mn11  1  0.202657  0.570848  0.884631  1
  O  O12  1  0.202903  0.885067  0.532903  1
  O  O13  1  0.797097  0.114931  0.467097  1
  O  O14  1  0.375660  0.999998  0.250000  1
  O  O15  1  0.797096  0.885069  0.032902  1
  O  O16  1  0.797095  0.614932  0.032905  1
  O  O17  1  0.822366  0.250001  0.206542  1
  O  O18  1  0.202903  0.114931  0.967095  1
  O  O19  1  0.177631  0.250001  0.706540  1
  O  O20  1  0.375663  0.500002  0.250003  1
  O  O21  1  0.624341  0.999997  0.749996  1
  O  O22  1  0.202906  0.614932  0.532903  1
  O  O23  1  0.177628  0.749998  0.793459  1
  O  O24  1  0.822374  0.750000  0.293460  1
  O  O25  1  0.624337  0.500002  0.749998  1
  O  O26  1  0.202902  0.385069  0.967098  1
  O  O27  1  0.797101  0.385068  0.467097  1
