# generated using pymatgen
data_Y2Fe2O7
_symmetry_space_group_name_H-M   'P 1'
_cell_length_a   7.18194440
_cell_length_b   7.18192485
_cell_length_c   7.18207620
_cell_angle_alpha   59.99394835
_cell_angle_beta   59.99388942
_cell_angle_gamma   59.99333143
_symmetry_Int_Tables_number   1
_chemical_formula_structural   Y2Fe2O7
_chemical_formula_sum   'Y4 Fe4 O14'
_cell_volume   261.91241994
_cell_formula_units_Z   2
loop_
 _symmetry_equiv_pos_site_id
 _symmetry_equiv_pos_as_xyz
  1  'x, y, z'
loop_
 _atom_site_type_symbol
 _atom_site_label
 _atom_site_symmetry_multiplicity
 _atom_site_fract_x
 _atom_site_fract_y
 _atom_site_fract_z
 _atom_site_occupancy
  Y  Y0  1  0.500002  -0.000000  0.500000  1
  Y  Y1  1  -0.000002  0.500001  0.500000  1
  Y  Y2  1  0.499999  0.500002  -0.000001  1
  Y  Y3  1  0.500002  0.500000  0.499999  1
  Fe  Fe4  1  -0.000001  0.500000  0.000003  1
  Fe  Fe5  1  0.499998  0.000001  -0.000001  1
  Fe  Fe6  1  -0.000001  0.000001  0.499999  1
  Fe  Fe7  1  0.000000  0.000000  0.000001  1
  O  O8  1  0.624974  0.625007  0.624946  1
  O  O9  1  0.375023  0.374994  0.375055  1
  O  O10  1  0.333306  0.916702  0.916676  1
  O  O11  1  0.083333  0.666647  0.666673  1
  O  O12  1  0.916683  0.333317  0.916682  1
  O  O13  1  0.916675  0.916698  0.333302  1
  O  O14  1  0.333334  0.333340  0.916670  1
  O  O15  1  0.333340  0.916692  0.333321  1
  O  O16  1  0.916669  0.333347  0.333330  1
  O  O17  1  0.666665  0.666661  0.083329  1
  O  O18  1  0.083330  0.083300  0.666696  1
  O  O19  1  0.666693  0.083299  0.083324  1
  O  O20  1  0.666662  0.083310  0.666678  1
  O  O21  1  0.083317  0.666682  0.083317  1
