# generated using pymatgen
data_Zr3(CuSi)4
_symmetry_space_group_name_H-M   'P 1'
_cell_length_a   3.94587789
_cell_length_b   6.41620747
_cell_length_c   7.56948624
_cell_angle_alpha   115.07603017
_cell_angle_beta   105.10826084
_cell_angle_gamma   89.99999997
_symmetry_Int_Tables_number   1
_chemical_formula_structural   Zr3(CuSi)4
_chemical_formula_sum   'Zr3 Si4 Cu4'
_cell_volume   166.23584420
_cell_formula_units_Z   1
loop_
 _symmetry_equiv_pos_site_id
 _symmetry_equiv_pos_as_xyz
  1  'x, y, z'
loop_
 _atom_site_type_symbol
 _atom_site_label
 _atom_site_symmetry_multiplicity
 _atom_site_fract_x
 _atom_site_fract_y
 _atom_site_fract_z
 _atom_site_occupancy
  Si  Si0  1  0.500000  0.809306  0.000000  1
  Si  Si1  1  0.500000  0.190694  0.000000  1
  Si  Si2  1  0.783994  0.283994  0.567988  1
  Si  Si3  1  0.216006  0.716006  0.432012  1
  Cu  Cu4  1  0.330405  0.522346  0.660811  1
  Cu  Cu5  1  0.669595  0.861536  0.339189  1
  Cu  Cu6  1  0.330405  0.138464  0.660811  1
  Cu  Cu7  1  0.669595  0.477654  0.339189  1
  Zr  Zr8  1  0.875736  0.875736  0.751472  1
  Zr  Zr9  1  0.124264  0.124264  0.248528  1
  Zr  Zr10  1  0.000000  0.500000  0.000000  1
