# generated using pymatgen
data_Ca3MoN3
_symmetry_space_group_name_H-M   'P 1'
_cell_length_a   7.50101698
_cell_length_b   7.50118243
_cell_length_c   5.09428342
_cell_angle_alpha   90.00000000
_cell_angle_beta   90.00000000
_cell_angle_gamma   120.00168511
_symmetry_Int_Tables_number   1
_chemical_formula_structural   Ca3MoN3
_chemical_formula_sum   'Ca6 Mo2 N6'
_cell_volume   248.23112555
_cell_formula_units_Z   2
loop_
 _symmetry_equiv_pos_site_id
 _symmetry_equiv_pos_as_xyz
  1  'x, y, z'
loop_
 _atom_site_type_symbol
 _atom_site_label
 _atom_site_symmetry_multiplicity
 _atom_site_fract_x
 _atom_site_fract_y
 _atom_site_fract_z
 _atom_site_occupancy
  Ca  Ca0  1  0.897652  0.649240  0.250000  1
  Ca  Ca1  1  0.751640  0.102453  0.250000  1
  Ca  Ca2  1  0.350746  0.248331  0.250000  1
  Ca  Ca3  1  0.102348  0.350760  0.750000  1
  Ca  Ca4  1  0.248360  0.897547  0.750000  1
  Ca  Ca5  1  0.649254  0.751669  0.750000  1
  Mo  Mo6  1  0.666610  0.333203  0.750000  1
  Mo  Mo7  1  0.333390  0.666797  0.250000  1
  N  N8  1  0.886765  0.606642  0.750000  1
  N  N9  1  0.719919  0.113271  0.750000  1
  N  N10  1  0.393436  0.280121  0.750000  1
  N  N11  1  0.113235  0.393358  0.250000  1
  N  N12  1  0.280081  0.886729  0.250000  1
  N  N13  1  0.606564  0.719879  0.250000  1
