# generated using pymatgen
data_Zr3NiO
_symmetry_space_group_name_H-M   'P 1'
_cell_length_a   3.34690258
_cell_length_b   5.71872032
_cell_length_c   8.83862854
_cell_angle_alpha   90.00000000
_cell_angle_beta   90.00000000
_cell_angle_gamma   107.01528918
_symmetry_Int_Tables_number   1
_chemical_formula_structural   Zr3NiO
_chemical_formula_sum   'Zr6 Ni2 O2'
_cell_volume   161.76616084
_cell_formula_units_Z   2
loop_
 _symmetry_equiv_pos_site_id
 _symmetry_equiv_pos_as_xyz
  1  'x, y, z'
loop_
 _atom_site_type_symbol
 _atom_site_label
 _atom_site_symmetry_multiplicity
 _atom_site_fract_x
 _atom_site_fract_y
 _atom_site_fract_z
 _atom_site_occupancy
  O  O0  1  0.000000  0.000000  0.500000  1
  O  O1  1  0.000000  0.000000  0.000000  1
  Ni  Ni2  1  0.755605  0.511207  0.250000  1
  Ni  Ni3  1  0.244396  0.488792  0.750000  1
  Zr  Zr4  1  0.065504  0.131008  0.250000  1
  Zr  Zr5  1  0.934497  0.868991  0.750000  1
  Zr  Zr6  1  0.365006  0.730012  0.059633  1
  Zr  Zr7  1  0.634995  0.269987  0.940368  1
  Zr  Zr8  1  0.634995  0.269987  0.559633  1
  Zr  Zr9  1  0.365006  0.730012  0.440367  1
