# generated using pymatgen
data_SrWO4
_symmetry_space_group_name_H-M   'P 1'
_cell_length_a   5.52200959
_cell_length_b   5.52235587
_cell_length_c   7.19728455
_cell_angle_alpha   112.56528193
_cell_angle_beta   112.55321031
_cell_angle_gamma   90.00331016
_symmetry_Int_Tables_number   1
_chemical_formula_structural   SrWO4
_chemical_formula_sum   'Sr2 W2 O8'
_cell_volume   184.36457383
_cell_formula_units_Z   2
loop_
 _symmetry_equiv_pos_site_id
 _symmetry_equiv_pos_as_xyz
  1  'x, y, z'
loop_
 _atom_site_type_symbol
 _atom_site_label
 _atom_site_symmetry_multiplicity
 _atom_site_fract_x
 _atom_site_fract_y
 _atom_site_fract_z
 _atom_site_occupancy
  O  O0  1  0.194611  0.565546  0.916042  1
  O  O1  1  0.350479  0.694560  0.416056  1
  O  O2  1  0.065532  0.221550  0.416091  1
  O  O3  1  0.721584  0.850459  0.916032  1
  O  O4  1  0.278416  0.149541  0.083968  1
  O  O5  1  0.934468  0.778450  0.583909  1
  O  O6  1  0.649521  0.305440  0.583944  1
  O  O7  1  0.805389  0.434454  0.083958  1
  Sr  Sr8  1  0.624975  0.875003  0.249990  1
  Sr  Sr9  1  0.375025  0.124997  0.750010  1
  W  W10  1  0.124910  0.375046  0.250027  1
  W  W11  1  0.875090  0.624954  0.749973  1
