# generated using pymatgen
data_Ca3MnN3
_symmetry_space_group_name_H-M   'P 1'
_cell_length_a   5.03677547
_cell_length_b   6.63194765
_cell_length_c   6.63194764
_cell_angle_alpha   101.46982692
_cell_angle_beta   90.00000000
_cell_angle_gamma   90.00000000
_symmetry_Int_Tables_number   1
_chemical_formula_structural   Ca3MnN3
_chemical_formula_sum   'Ca6 Mn2 N6'
_cell_volume   217.10705918
_cell_formula_units_Z   2
loop_
 _symmetry_equiv_pos_site_id
 _symmetry_equiv_pos_as_xyz
  1  'x, y, z'
loop_
 _atom_site_type_symbol
 _atom_site_label
 _atom_site_symmetry_multiplicity
 _atom_site_fract_x
 _atom_site_fract_y
 _atom_site_fract_z
 _atom_site_occupancy
  N  N0  1  0.750000  0.933385  0.681923  1
  N  N1  1  0.250000  0.625744  0.374256  1
  N  N2  1  0.750000  0.374256  0.625744  1
  N  N3  1  0.250000  0.681923  0.933385  1
  N  N4  1  0.250000  0.066615  0.318077  1
  N  N5  1  0.750000  0.318077  0.066615  1
  Ca  Ca6  1  0.250000  0.904325  0.671466  1
  Ca  Ca7  1  0.750000  0.607524  0.392476  1
  Ca  Ca8  1  0.750000  0.671466  0.904325  1
  Ca  Ca9  1  0.250000  0.392476  0.607524  1
  Ca  Ca10  1  0.750000  0.095675  0.328534  1
  Ca  Ca11  1  0.250000  0.328534  0.095675  1
  Mn  Mn12  1  0.750000  0.199355  0.800645  1
  Mn  Mn13  1  0.250000  0.800645  0.199355  1
