# generated using pymatgen
data_VFeO4
_symmetry_space_group_name_H-M   'P 1'
_cell_length_a   5.08883973
_cell_length_b   5.08883973
_cell_length_c   6.25067639
_cell_angle_alpha   90.00000000
_cell_angle_beta   90.00000000
_cell_angle_gamma   111.97126106
_symmetry_Int_Tables_number   1
_chemical_formula_structural   VFeO4
_chemical_formula_sum   'V2 Fe2 O8'
_cell_volume   150.11302297
_cell_formula_units_Z   2
loop_
 _symmetry_equiv_pos_site_id
 _symmetry_equiv_pos_as_xyz
  1  'x, y, z'
loop_
 _atom_site_type_symbol
 _atom_site_label
 _atom_site_symmetry_multiplicity
 _atom_site_fract_x
 _atom_site_fract_y
 _atom_site_fract_z
 _atom_site_occupancy
  O  O0  1  0.740091  0.788173  0.750000  1
  O  O1  1  0.259909  0.211827  0.250000  1
  O  O2  1  0.788173  0.740091  0.250000  1
  O  O3  1  0.211827  0.259909  0.750000  1
  O  O4  1  0.235728  0.764273  0.966380  1
  O  O5  1  0.764273  0.235728  0.466380  1
  O  O6  1  0.764273  0.235728  0.033620  1
  O  O7  1  0.235728  0.764273  0.533620  1
  V  V8  1  0.643811  0.356189  0.250000  1
  V  V9  1  0.356189  0.643811  0.750000  1
  Fe  Fe10  1  0.000000  0.000000  0.500000  1
  Fe  Fe11  1  0.000000  0.000000  0.000000  1
