# generated using pymatgen
data_TiMnO3
_symmetry_space_group_name_H-M   'P 1'
_cell_length_a   5.67222533
_cell_length_b   5.67222534
_cell_length_c   5.67222534
_cell_angle_alpha   54.52713090
_cell_angle_beta   54.52713091
_cell_angle_gamma   54.52713086
_symmetry_Int_Tables_number   1
_chemical_formula_structural   TiMnO3
_chemical_formula_sum   'Ti2 Mn2 O6'
_cell_volume   112.58280985
_cell_formula_units_Z   2
loop_
 _symmetry_equiv_pos_site_id
 _symmetry_equiv_pos_as_xyz
  1  'x, y, z'
loop_
 _atom_site_type_symbol
 _atom_site_label
 _atom_site_symmetry_multiplicity
 _atom_site_fract_x
 _atom_site_fract_y
 _atom_site_fract_z
 _atom_site_occupancy
  O  O0  1  0.044387  0.786750  0.436594  1
  O  O1  1  0.786750  0.436594  0.044387  1
  O  O2  1  0.436594  0.044387  0.786750  1
  O  O3  1  0.955613  0.213250  0.563406  1
  O  O4  1  0.563406  0.955613  0.213250  1
  O  O5  1  0.213250  0.563406  0.955613  1
  Ti  Ti6  1  0.853664  0.853664  0.853664  1
  Ti  Ti7  1  0.146336  0.146336  0.146336  1
  Mn  Mn8  1  0.640919  0.640919  0.640919  1
  Mn  Mn9  1  0.359081  0.359081  0.359081  1
