# generated using pymatgen
data_Nb5(CuSi)4
_symmetry_space_group_name_H-M   'P 1'
_cell_length_a   3.61273548
_cell_length_b   7.46630238
_cell_length_c   7.46630238
_cell_angle_alpha   86.64438502
_cell_angle_beta   75.99916394
_cell_angle_gamma   75.99916390
_symmetry_Int_Tables_number   1
_chemical_formula_structural   Nb5(CuSi)4
_chemical_formula_sum   'Nb5 Si4 Cu4'
_cell_volume   189.60613704
_cell_formula_units_Z   1
loop_
 _symmetry_equiv_pos_site_id
 _symmetry_equiv_pos_as_xyz
  1  'x, y, z'
loop_
 _atom_site_type_symbol
 _atom_site_label
 _atom_site_symmetry_multiplicity
 _atom_site_fract_x
 _atom_site_fract_y
 _atom_site_fract_z
 _atom_site_occupancy
  Si  Si0  1  0.559149  0.193477  0.688225  1
  Si  Si1  1  0.247374  0.311775  0.193477  1
  Si  Si2  1  0.752626  0.688225  0.806523  1
  Si  Si3  1  0.440851  0.806523  0.311775  1
  Cu  Cu4  1  0.917929  0.685754  0.478388  1
  Cu  Cu5  1  0.082071  0.314246  0.521612  1
  Cu  Cu6  1  0.603683  0.478388  0.314246  1
  Cu  Cu7  1  0.396317  0.521612  0.685754  1
  Nb  Nb8  1  0.500000  0.000000  0.000000  1
  Nb  Nb9  1  0.804151  0.066679  0.325019  1
  Nb  Nb10  1  0.129170  0.674981  0.066679  1
  Nb  Nb11  1  0.870830  0.325019  0.933321  1
  Nb  Nb12  1  0.195849  0.933321  0.674981  1
