# generated using pymatgen
data_CoMoO4
_symmetry_space_group_name_H-M   'P 1'
_cell_length_a   4.69038905
_cell_length_b   4.99426816
_cell_length_c   5.77316071
_cell_angle_alpha   90.00000000
_cell_angle_beta   90.00000000
_cell_angle_gamma   90.20961531
_symmetry_Int_Tables_number   1
_chemical_formula_structural   CoMoO4
_chemical_formula_sum   'Co2 Mo2 O8'
_cell_volume   135.23573494
_cell_formula_units_Z   2
loop_
 _symmetry_equiv_pos_site_id
 _symmetry_equiv_pos_as_xyz
  1  'x, y, z'
loop_
 _atom_site_type_symbol
 _atom_site_label
 _atom_site_symmetry_multiplicity
 _atom_site_fract_x
 _atom_site_fract_y
 _atom_site_fract_z
 _atom_site_occupancy
  O  O0  1  0.741063  0.400940  0.375430  1
  O  O1  1  0.258937  0.099060  0.375430  1
  O  O2  1  0.258937  0.599060  0.624570  1
  O  O3  1  0.741063  0.900940  0.624570  1
  O  O4  1  0.781544  0.931286  0.109473  1
  O  O5  1  0.218456  0.568714  0.109473  1
  O  O6  1  0.218456  0.068714  0.890527  1
  O  O7  1  0.781544  0.431286  0.890527  1
  Co  Co8  1  0.500000  0.250000  0.663958  1
  Co  Co9  1  0.500000  0.750000  0.336042  1
  Mo  Mo10  1  0.000000  0.250000  0.180594  1
  Mo  Mo11  1  0.000000  0.750000  0.819406  1
