# generated using pymatgen
data_BaWO4
_symmetry_space_group_name_H-M   'P 1'
_cell_length_a   5.74354179
_cell_length_b   5.74331613
_cell_length_c   7.61149363
_cell_angle_alpha   112.16107649
_cell_angle_beta   112.16408563
_cell_angle_gamma   89.99925419
_symmetry_Int_Tables_number   1
_chemical_formula_structural   BaWO4
_chemical_formula_sum   'Ba2 W2 O8'
_cell_volume   212.36538121
_cell_formula_units_Z   2
loop_
 _symmetry_equiv_pos_site_id
 _symmetry_equiv_pos_as_xyz
  1  'x, y, z'
loop_
 _atom_site_type_symbol
 _atom_site_label
 _atom_site_symmetry_multiplicity
 _atom_site_fract_x
 _atom_site_fract_y
 _atom_site_fract_z
 _atom_site_occupancy
  O  O0  1  0.185480  0.577695  0.907508  1
  O  O1  1  0.329807  0.685315  0.407432  1
  O  O2  1  0.077669  0.221927  0.407465  1
  O  O3  1  0.722090  0.829977  0.907583  1
  O  O4  1  0.277910  0.170023  0.092417  1
  O  O5  1  0.922331  0.778073  0.592534  1
  O  O6  1  0.670193  0.314685  0.592568  1
  O  O7  1  0.814520  0.422305  0.092492  1
  Ba  Ba8  1  0.625003  0.874999  0.250021  1
  Ba  Ba9  1  0.374997  0.125001  0.749979  1
  W  W10  1  0.124971  0.374873  0.249931  1
  W  W11  1  0.875029  0.625127  0.750069  1
