# generated using pymatgen
data_PbO2
_symmetry_space_group_name_H-M   'P 1'
_cell_length_a   3.50428387
_cell_length_b   4.99171787
_cell_length_c   4.99111643
_cell_angle_alpha   90.01538585
_cell_angle_beta   89.99162287
_cell_angle_gamma   90.03095448
_symmetry_Int_Tables_number   1
_chemical_formula_structural   PbO2
_chemical_formula_sum   'Pb2 O4'
_cell_volume   87.30657029
_cell_formula_units_Z   2
loop_
 _symmetry_equiv_pos_site_id
 _symmetry_equiv_pos_as_xyz
  1  'x, y, z'
loop_
 _atom_site_type_symbol
 _atom_site_label
 _atom_site_symmetry_multiplicity
 _atom_site_fract_x
 _atom_site_fract_y
 _atom_site_fract_z
 _atom_site_occupancy
  Pb  Pb0  1  0.000299  0.000155  0.000005  1
  Pb  Pb1  1  0.499647  0.500244  0.500083  1
  O  O2  1  -0.000047  0.692002  0.691895  1
  O  O3  1  -0.000376  0.307640  0.308315  1
  O  O4  1  0.500513  0.192560  0.807830  1
  O  O5  1  0.499964  0.807399  0.191871  1
