# generated using pymatgen
data_NiGePt2
_symmetry_space_group_name_H-M   'P 1'
_cell_length_a   5.37680971
_cell_length_b   5.37680969
_cell_length_c   5.42366702
_cell_angle_alpha   118.15634874
_cell_angle_beta   118.15634870
_cell_angle_gamma   92.75223019
_symmetry_Int_Tables_number   1
_chemical_formula_structural   NiGePt2
_chemical_formula_sum   'Ni2 Ge2 Pt4'
_cell_volume   114.25561540
_cell_formula_units_Z   2
loop_
 _symmetry_equiv_pos_site_id
 _symmetry_equiv_pos_as_xyz
  1  'x, y, z'
loop_
 _atom_site_type_symbol
 _atom_site_label
 _atom_site_symmetry_multiplicity
 _atom_site_fract_x
 _atom_site_fract_y
 _atom_site_fract_z
 _atom_site_occupancy
  Ni  Ni0  1  0.201492  0.798508  0.000000  1
  Ni  Ni1  1  0.798508  0.201492  0.000000  1
  Pt  Pt2  1  0.302545  0.302545  0.000000  1
  Pt  Pt3  1  0.697455  0.697455  1.000000  1
  Pt  Pt4  1  0.250000  0.750000  0.500000  1
  Pt  Pt5  1  0.750000  0.250000  0.500000  1
  Ge  Ge6  1  0.768098  0.768098  0.536195  1
  Ge  Ge7  1  0.231902  0.231902  0.463805  1
