# generated using pymatgen
data_MnWN2
_symmetry_space_group_name_H-M   'P 1'
_cell_length_a   3.04373047
_cell_length_b   3.04373047
_cell_length_c   10.28909814
_cell_angle_alpha   90.00000000
_cell_angle_beta   90.00000000
_cell_angle_gamma   119.99999991
_symmetry_Int_Tables_number   1
_chemical_formula_structural   MnWN2
_chemical_formula_sum   'Mn2 W2 N4'
_cell_volume   82.55061733
_cell_formula_units_Z   2
loop_
 _symmetry_equiv_pos_site_id
 _symmetry_equiv_pos_as_xyz
  1  'x, y, z'
loop_
 _atom_site_type_symbol
 _atom_site_label
 _atom_site_symmetry_multiplicity
 _atom_site_fract_x
 _atom_site_fract_y
 _atom_site_fract_z
 _atom_site_occupancy
  N  N0  1  0.666667  0.333333  0.942169  1
  N  N1  1  0.333333  0.666667  0.442169  1
  N  N2  1  0.000000  0.000000  0.180743  1
  N  N3  1  0.000000  0.000000  0.680743  1
  Mn  Mn4  1  0.000000  0.000000  -0.014696  1
  Mn  Mn5  1  0.000000  0.000000  0.485304  1
  W  W6  1  0.666667  0.333333  0.291784  1
  W  W7  1  0.333333  0.666667  0.791784  1
