# generated using pymatgen
data_Li8SiO6
_symmetry_space_group_name_H-M   'P 1'
_cell_length_a   5.47728043
_cell_length_b   5.47728042
_cell_length_c   10.74395243
_cell_angle_alpha   90.00000000
_cell_angle_beta   90.00000000
_cell_angle_gamma   119.99999999
_symmetry_Int_Tables_number   1
_chemical_formula_structural   Li8SiO6
_chemical_formula_sum   'Li16 Si2 O12'
_cell_volume   279.14166307
_cell_formula_units_Z   2
loop_
 _symmetry_equiv_pos_site_id
 _symmetry_equiv_pos_as_xyz
  1  'x, y, z'
loop_
 _atom_site_type_symbol
 _atom_site_label
 _atom_site_symmetry_multiplicity
 _atom_site_fract_x
 _atom_site_fract_y
 _atom_site_fract_z
 _atom_site_occupancy
  Li  Li0  1  0.000000  0.307162  0.270045  1
  Li  Li1  1  0.692838  0.000000  0.770045  1
  Li  Li2  1  0.333333  0.666667  0.411707  1
  Li  Li3  1  0.666667  0.333333  0.911707  1
  Li  Li4  1  0.333333  0.666667  0.911707  1
  Li  Li5  1  0.666667  0.333333  0.411707  1
  Li  Li6  1  0.393867  0.000000  0.629067  1
  Li  Li7  1  0.393867  0.393867  0.129067  1
  Li  Li8  1  0.000000  0.606133  0.129067  1
  Li  Li9  1  0.000000  0.393867  0.629067  1
  Li  Li10  1  0.606133  0.606133  0.629067  1
  Li  Li11  1  0.606133  0.000000  0.129067  1
  Li  Li12  1  0.307162  0.000000  0.270045  1
  Li  Li13  1  0.692838  0.692838  0.270045  1
  Li  Li14  1  0.000000  0.692838  0.770045  1
  Li  Li15  1  0.307162  0.307162  0.770045  1
  O  O16  1  0.000000  0.287055  0.453205  1
  O  O17  1  0.712945  0.712945  0.453205  1
  O  O18  1  0.000000  0.000000  0.156475  1
  O  O19  1  0.000000  0.000000  0.656475  1
  O  O20  1  0.333333  0.666667  0.219907  1
  O  O21  1  0.666667  0.333333  0.719907  1
  O  O22  1  0.333333  0.666667  0.719907  1
  O  O23  1  0.712945  0.000000  0.953205  1
  O  O24  1  0.287055  0.000000  0.453205  1
  O  O25  1  0.287055  0.287055  0.953205  1
  O  O26  1  0.000000  0.712945  0.953205  1
  O  O27  1  0.666667  0.333333  0.219907  1
  Si  Si28  1  0.000000  0.000000  0.499646  1
  Si  Si29  1  0.000000  0.000000  -0.000354  1
