# generated using pymatgen
data_FeGe2
_symmetry_space_group_name_H-M   'P 1'
_cell_length_a   4.85962985
_cell_length_b   4.85962985
_cell_length_c   4.85962986
_cell_angle_alpha   104.97782617
_cell_angle_beta   104.97782619
_cell_angle_gamma   118.88869175
_symmetry_Int_Tables_number   1
_chemical_formula_structural   FeGe2
_chemical_formula_sum   'Fe2 Ge4'
_cell_volume   86.53007043
_cell_formula_units_Z   2
loop_
 _symmetry_equiv_pos_site_id
 _symmetry_equiv_pos_as_xyz
  1  'x, y, z'
loop_
 _atom_site_type_symbol
 _atom_site_label
 _atom_site_symmetry_multiplicity
 _atom_site_fract_x
 _atom_site_fract_y
 _atom_site_fract_z
 _atom_site_occupancy
  Fe  Fe0  1  0.250000  0.250000  0.000000  1
  Fe  Fe1  1  0.750000  0.750000  0.000000  1
  Ge  Ge2  1  0.656173  0.156173  0.812346  1
  Ge  Ge3  1  0.156173  0.343827  0.500000  1
  Ge  Ge4  1  0.843827  0.656173  0.500000  1
  Ge  Ge5  1  0.343827  0.843827  0.187654  1
