# generated using pymatgen
data_TlInSe2
_symmetry_space_group_name_H-M   'P 1'
_cell_length_a   6.81834185
_cell_length_b   6.81834185
_cell_length_c   6.81834185
_cell_angle_alpha   105.14405896
_cell_angle_beta   105.14405895
_cell_angle_gamma   118.52266023
_symmetry_Int_Tables_number   1
_chemical_formula_structural   TlInSe2
_chemical_formula_sum   'Tl2 In2 Se4'
_cell_volume   239.38183305
_cell_formula_units_Z   2
loop_
 _symmetry_equiv_pos_site_id
 _symmetry_equiv_pos_as_xyz
  1  'x, y, z'
loop_
 _atom_site_type_symbol
 _atom_site_label
 _atom_site_symmetry_multiplicity
 _atom_site_fract_x
 _atom_site_fract_y
 _atom_site_fract_z
 _atom_site_occupancy
  Se  Se0  1  0.829518  0.670482  0.500000  1
  Se  Se1  1  0.329518  0.829518  0.159037  1
  Se  Se2  1  0.170482  0.329518  0.500000  1
  Se  Se3  1  0.670482  0.170482  0.840963  1
  In  In4  1  0.250000  0.750000  0.500000  1
  In  In5  1  0.750000  0.250000  0.500000  1
  Tl  Tl6  1  0.250000  0.250000  0.000000  1
  Tl  Tl7  1  0.750000  0.750000  0.000000  1
