# generated using pymatgen
data_GaS
_symmetry_space_group_name_H-M   'P 1'
_cell_length_a   3.62556141
_cell_length_b   3.62556140
_cell_length_c   16.82565293
_cell_angle_alpha   90.00000000
_cell_angle_beta   90.00000000
_cell_angle_gamma   119.99999996
_symmetry_Int_Tables_number   1
_chemical_formula_structural   GaS
_chemical_formula_sum   'Ga4 S4'
_cell_volume   191.53717986
_cell_formula_units_Z   4
loop_
 _symmetry_equiv_pos_site_id
 _symmetry_equiv_pos_as_xyz
  1  'x, y, z'
loop_
 _atom_site_type_symbol
 _atom_site_label
 _atom_site_symmetry_multiplicity
 _atom_site_fract_x
 _atom_site_fract_y
 _atom_site_fract_z
 _atom_site_occupancy
  S  S0  1  0.333333  0.666667  0.887994  1
  S  S1  1  0.666667  0.333333  0.387994  1
  S  S2  1  0.666667  0.333333  0.112006  1
  S  S3  1  0.333333  0.666667  0.612006  1
  Ga  Ga4  1  0.333333  0.666667  0.323519  1
  Ga  Ga5  1  0.666667  0.333333  0.823519  1
  Ga  Ga6  1  0.666667  0.333333  0.676481  1
  Ga  Ga7  1  0.333333  0.666667  0.176481  1
