# generated using pymatgen
data_CaTiF6
_symmetry_space_group_name_H-M   'P 1'
_cell_length_a   5.90460316
_cell_length_b   5.90460316
_cell_length_c   5.90460316
_cell_angle_alpha   59.69261623
_cell_angle_beta   59.69261618
_cell_angle_gamma   59.69261623
_symmetry_Int_Tables_number   1
_chemical_formula_structural   CaTiF6
_chemical_formula_sum   'Ca1 Ti1 F6'
_cell_volume   144.54865182
_cell_formula_units_Z   1
loop_
 _symmetry_equiv_pos_site_id
 _symmetry_equiv_pos_as_xyz
  1  'x, y, z'
loop_
 _atom_site_type_symbol
 _atom_site_label
 _atom_site_symmetry_multiplicity
 _atom_site_fract_x
 _atom_site_fract_y
 _atom_site_fract_z
 _atom_site_occupancy
  F  F0  1  0.773085  0.773085  0.227929  1
  F  F1  1  0.773085  0.227929  0.773085  1
  F  F2  1  0.226915  0.772071  0.226915  1
  F  F3  1  0.226915  0.226915  0.772071  1
  F  F4  1  0.772071  0.226915  0.226915  1
  F  F5  1  0.227929  0.773085  0.773085  1
  Ca  Ca6  1  0.500000  0.500000  0.500000  1
  Ti  Ti7  1  0.000000  0.000000  0.000000  1
