# generated using pymatgen
data_Sr5P3ClO12
_symmetry_space_group_name_H-M   'P 1'
_cell_length_a   10.01489572
_cell_length_b   10.01489610
_cell_length_c   7.25810694
_cell_angle_alpha   90.00000000
_cell_angle_beta   90.00000000
_cell_angle_gamma   119.99999870
_symmetry_Int_Tables_number   1
_chemical_formula_structural   Sr5P3ClO12
_chemical_formula_sum   'Sr10 P6 Cl2 O24'
_cell_volume   630.44452806
_cell_formula_units_Z   2
loop_
 _symmetry_equiv_pos_site_id
 _symmetry_equiv_pos_as_xyz
  1  'x, y, z'
loop_
 _atom_site_type_symbol
 _atom_site_label
 _atom_site_symmetry_multiplicity
 _atom_site_fract_x
 _atom_site_fract_y
 _atom_site_fract_z
 _atom_site_occupancy
  Cl  Cl0  1  0.000000  0.000000  0.000000  1
  Cl  Cl1  1  0.000000  0.000000  0.500000  1
  O  O2  1  0.467042  0.881596  0.750000  1
  O  O3  1  0.519432  0.854520  0.250000  1
  O  O4  1  0.881596  0.414554  0.250000  1
  O  O5  1  0.854520  0.335088  0.750000  1
  O  O6  1  0.732986  0.087408  0.423429  1
  O  O7  1  0.732986  0.087408  0.076571  1
  O  O8  1  0.645578  0.732986  0.923429  1
  O  O9  1  0.645578  0.732986  0.576571  1
  O  O10  1  0.585446  0.467042  0.250000  1
  O  O11  1  0.664912  0.519432  0.750000  1
  O  O12  1  0.087408  0.354422  0.923429  1
  O  O13  1  0.087408  0.354422  0.576571  1
  O  O14  1  0.912592  0.645578  0.423429  1
  O  O15  1  0.912592  0.645578  0.076571  1
  O  O16  1  0.335088  0.480568  0.250000  1
  O  O17  1  0.414554  0.532958  0.750000  1
  O  O18  1  0.354422  0.267014  0.423429  1
  O  O19  1  0.354422  0.267014  0.076571  1
  O  O20  1  0.267014  0.912592  0.923429  1
  O  O21  1  0.267014  0.912592  0.576571  1
  O  O22  1  0.145480  0.664912  0.250000  1
  O  O23  1  0.118404  0.585446  0.750000  1
  O  O24  1  0.480568  0.145480  0.750000  1
  O  O25  1  0.532958  0.118404  0.250000  1
  P  P26  1  0.627674  0.032731  0.250000  1
  P  P27  1  0.594942  0.627674  0.750000  1
  P  P28  1  0.032731  0.405058  0.750000  1
  P  P29  1  0.967269  0.594942  0.250000  1
  P  P30  1  0.405058  0.372326  0.250000  1
  P  P31  1  0.372326  0.967269  0.750000  1
  Sr  Sr32  1  0.994717  0.744132  0.750000  1
  Sr  Sr33  1  0.333333  0.666667  0.499572  1
  Sr  Sr34  1  0.333333  0.666667  1.000428  1
  Sr  Sr35  1  0.255868  0.250584  0.750000  1
  Sr  Sr36  1  0.250584  0.994717  0.250000  1
  Sr  Sr37  1  0.749416  0.005283  0.750000  1
  Sr  Sr38  1  0.744132  0.749416  0.250000  1
  Sr  Sr39  1  0.666667  0.333333  -0.000428  1
  Sr  Sr40  1  0.666667  0.333333  0.500428  1
  Sr  Sr41  1  0.005283  0.255868  0.250000  1
