# generated using pymatgen
data_SrMg2
_symmetry_space_group_name_H-M   'P 1'
_cell_length_a   6.48792320
_cell_length_b   6.48792320
_cell_length_c   10.34716039
_cell_angle_alpha   90.00000000
_cell_angle_beta   90.00000000
_cell_angle_gamma   120.00000000
_symmetry_Int_Tables_number   1
_chemical_formula_structural   SrMg2
_chemical_formula_sum   'Sr4 Mg8'
_cell_volume   377.19264309
_cell_formula_units_Z   4
loop_
 _symmetry_equiv_pos_site_id
 _symmetry_equiv_pos_as_xyz
  1  'x, y, z'
loop_
 _atom_site_type_symbol
 _atom_site_label
 _atom_site_symmetry_multiplicity
 _atom_site_fract_x
 _atom_site_fract_y
 _atom_site_fract_z
 _atom_site_occupancy
  Mg  Mg0  1  0.166750  0.333500  0.750000  1
  Mg  Mg1  1  0.833250  0.166750  0.250000  1
  Mg  Mg2  1  0.333500  0.166750  0.250000  1
  Mg  Mg3  1  0.666500  0.833250  0.750000  1
  Mg  Mg4  1  0.000000  0.000000  0.000000  1
  Mg  Mg5  1  0.000000  0.000000  0.500000  1
  Mg  Mg6  1  0.833250  0.666500  0.250000  1
  Mg  Mg7  1  0.166750  0.833250  0.750000  1
  Sr  Sr8  1  0.333333  0.666667  0.439384  1
  Sr  Sr9  1  0.666667  0.333333  0.939384  1
  Sr  Sr10  1  0.666667  0.333333  0.560616  1
  Sr  Sr11  1  0.333333  0.666667  0.060616  1
