# generated using pymatgen
data_Pd17Se15
_symmetry_space_group_name_H-M   'P 1'
_cell_length_a   10.78777325
_cell_length_b   10.78777325
_cell_length_c   10.78777325
_cell_angle_alpha   90.00000000
_cell_angle_beta   90.00000000
_cell_angle_gamma   90.00000000
_symmetry_Int_Tables_number   1
_chemical_formula_structural   Pd17Se15
_chemical_formula_sum   'Pd34 Se30'
_cell_volume   1255.43845740
_cell_formula_units_Z   2
loop_
 _symmetry_equiv_pos_site_id
 _symmetry_equiv_pos_as_xyz
  1  'x, y, z'
loop_
 _atom_site_type_symbol
 _atom_site_label
 _atom_site_symmetry_multiplicity
 _atom_site_fract_x
 _atom_site_fract_y
 _atom_site_fract_z
 _atom_site_occupancy
  Se  Se0  1  0.759347  0.000000  0.000000  1
  Se  Se1  1  0.000000  0.759347  0.000000  1
  Se  Se2  1  0.000000  0.240653  0.000000  1
  Se  Se3  1  0.000000  0.000000  0.240653  1
  Se  Se4  1  0.000000  0.000000  0.759347  1
  Se  Se5  1  0.240653  0.000000  0.000000  1
  Se  Se6  1  0.000000  0.669249  0.669249  1
  Se  Se7  1  0.330751  0.669249  0.000000  1
  Se  Se8  1  0.669249  0.000000  0.669249  1
  Se  Se9  1  0.330751  0.000000  0.669249  1
  Se  Se10  1  0.669249  0.669249  0.000000  1
  Se  Se11  1  0.330751  0.000000  0.330751  1
  Se  Se12  1  0.669249  0.000000  0.330751  1
  Se  Se13  1  0.669249  0.330751  0.000000  1
  Se  Se14  1  0.330751  0.330751  0.000000  1
  Se  Se15  1  0.000000  0.330751  0.669249  1
  Se  Se16  1  0.000000  0.669249  0.330751  1
  Se  Se17  1  0.000000  0.330751  0.330751  1
  Se  Se18  1  0.500000  0.730548  0.730548  1
  Se  Se19  1  0.269452  0.730548  0.500000  1
  Se  Se20  1  0.730548  0.500000  0.730548  1
  Se  Se21  1  0.269452  0.500000  0.730548  1
  Se  Se22  1  0.730548  0.730548  0.500000  1
  Se  Se23  1  0.269452  0.500000  0.269452  1
  Se  Se24  1  0.730548  0.500000  0.269452  1
  Se  Se25  1  0.730548  0.269452  0.500000  1
  Se  Se26  1  0.269452  0.269452  0.500000  1
  Se  Se27  1  0.500000  0.269452  0.730548  1
  Se  Se28  1  0.500000  0.730548  0.269452  1
  Se  Se29  1  0.500000  0.269452  0.269452  1
  Pd  Pd30  1  0.147883  0.852117  0.650488  1
  Pd  Pd31  1  0.500000  0.500000  0.000000  1
  Pd  Pd32  1  0.000000  0.500000  0.500000  1
  Pd  Pd33  1  0.000000  0.000000  0.000000  1
  Pd  Pd34  1  0.740744  0.500000  0.500000  1
  Pd  Pd35  1  0.500000  0.740744  0.500000  1
  Pd  Pd36  1  0.500000  0.259256  0.500000  1
  Pd  Pd37  1  0.500000  0.500000  0.259256  1
  Pd  Pd38  1  0.500000  0.500000  0.740744  1
  Pd  Pd39  1  0.259256  0.500000  0.500000  1
  Pd  Pd40  1  0.852117  0.650488  0.852117  1
  Pd  Pd41  1  0.852117  0.349512  0.147883  1
  Pd  Pd42  1  0.650488  0.852117  0.852117  1
  Pd  Pd43  1  0.349512  0.852117  0.147883  1
  Pd  Pd44  1  0.852117  0.852117  0.650488  1
  Pd  Pd45  1  0.147883  0.147883  0.650488  1
  Pd  Pd46  1  0.852117  0.852117  0.349512  1
  Pd  Pd47  1  0.852117  0.147883  0.650488  1
  Pd  Pd48  1  0.500000  0.000000  0.500000  1
  Pd  Pd49  1  0.147883  0.650488  0.852117  1
  Pd  Pd50  1  0.650488  0.147883  0.852117  1
  Pd  Pd51  1  0.650488  0.852117  0.147883  1
  Pd  Pd52  1  0.852117  0.349512  0.852117  1
  Pd  Pd53  1  0.349512  0.852117  0.852117  1
  Pd  Pd54  1  0.852117  0.650488  0.147883  1
  Pd  Pd55  1  0.147883  0.349512  0.147883  1
  Pd  Pd56  1  0.349512  0.147883  0.147883  1
  Pd  Pd57  1  0.147883  0.852117  0.349512  1
  Pd  Pd58  1  0.852117  0.147883  0.349512  1
  Pd  Pd59  1  0.650488  0.147883  0.147883  1
  Pd  Pd60  1  0.349512  0.147883  0.852117  1
  Pd  Pd61  1  0.147883  0.349512  0.852117  1
  Pd  Pd62  1  0.147883  0.650488  0.147883  1
  Pd  Pd63  1  0.147883  0.147883  0.349512  1
