# generated using pymatgen
data_CaSn
_symmetry_space_group_name_H-M   'P 1'
_cell_length_a   4.38792933
_cell_length_b   4.80737665
_cell_length_c   6.30602015
_cell_angle_alpha   112.40639628
_cell_angle_beta   90.00000000
_cell_angle_gamma   90.00000000
_symmetry_Int_Tables_number   1
_chemical_formula_structural   CaSn
_chemical_formula_sum   'Ca2 Sn2'
_cell_volume   122.97920513
_cell_formula_units_Z   2
loop_
 _symmetry_equiv_pos_site_id
 _symmetry_equiv_pos_as_xyz
  1  'x, y, z'
loop_
 _atom_site_type_symbol
 _atom_site_label
 _atom_site_symmetry_multiplicity
 _atom_site_fract_x
 _atom_site_fract_y
 _atom_site_fract_z
 _atom_site_occupancy
  Ca  Ca0  1  0.750000  0.134378  0.268757  1
  Ca  Ca1  1  0.250000  0.865622  0.731243  1
  Sn  Sn2  1  0.750000  0.414617  0.829233  1
  Sn  Sn3  1  0.250000  0.585383  0.170767  1
