# generated using pymatgen
data_AgI
_symmetry_space_group_name_H-M   'P 1'
_cell_length_a   4.68075686
_cell_length_b   4.68075684
_cell_length_c   4.68075629
_cell_angle_alpha   119.77362147
_cell_angle_beta   91.37262482
_cell_angle_gamma   118.65086539
_symmetry_Int_Tables_number   1
_chemical_formula_structural   AgI
_chemical_formula_sum   'Ag1 I1'
_cell_volume   73.34800101
_cell_formula_units_Z   1
loop_
 _symmetry_equiv_pos_site_id
 _symmetry_equiv_pos_as_xyz
  1  'x, y, z'
loop_
 _atom_site_type_symbol
 _atom_site_label
 _atom_site_symmetry_multiplicity
 _atom_site_fract_x
 _atom_site_fract_y
 _atom_site_fract_z
 _atom_site_occupancy
  Ag  Ag0  1  0.773711  0.500000  0.273711  1
  I  I1  1  0.029289  1.000000  0.029289  1
