# generated using pymatgen
data_MnPd3
_symmetry_space_group_name_H-M   'P 1'
_cell_length_a   3.95047810
_cell_length_b   3.95047810
_cell_length_c   8.31233919
_cell_angle_alpha   103.74654631
_cell_angle_beta   103.74654635
_cell_angle_gamma   89.99999992
_symmetry_Int_Tables_number   1
_chemical_formula_structural   MnPd3
_chemical_formula_sum   'Mn2 Pd6'
_cell_volume   122.18015190
_cell_formula_units_Z   2
loop_
 _symmetry_equiv_pos_site_id
 _symmetry_equiv_pos_as_xyz
  1  'x, y, z'
loop_
 _atom_site_type_symbol
 _atom_site_label
 _atom_site_symmetry_multiplicity
 _atom_site_fract_x
 _atom_site_fract_y
 _atom_site_fract_z
 _atom_site_occupancy
  Mn  Mn0  1  0.124193  0.124193  0.248386  1
  Mn  Mn1  1  0.875807  0.875807  0.751614  1
  Pd  Pd2  1  0.374648  0.374648  0.749295  1
  Pd  Pd3  1  0.625352  0.625352  0.250705  1
  Pd  Pd4  1  0.500000  0.000000  0.000000  1
  Pd  Pd5  1  0.000000  0.500000  0.000000  1
  Pd  Pd6  1  0.750000  0.250000  0.500000  1
  Pd  Pd7  1  0.250000  0.750000  0.500000  1
