# generated using pymatgen
data_BiPd2Pb
_symmetry_space_group_name_H-M   'P 1'
_cell_length_a   5.67993762
_cell_length_b   5.73915404
_cell_length_c   5.73915392
_cell_angle_alpha   100.54428778
_cell_angle_beta   101.75383003
_cell_angle_gamma   101.75382708
_symmetry_Int_Tables_number   1
_chemical_formula_structural   BiPd2Pb
_chemical_formula_sum   'Bi2 Pd4 Pb2'
_cell_volume   174.33405515
_cell_formula_units_Z   2
loop_
 _symmetry_equiv_pos_site_id
 _symmetry_equiv_pos_as_xyz
  1  'x, y, z'
loop_
 _atom_site_type_symbol
 _atom_site_label
 _atom_site_symmetry_multiplicity
 _atom_site_fract_x
 _atom_site_fract_y
 _atom_site_fract_z
 _atom_site_occupancy
  Bi  Bi0  1  0.573930  0.505589  0.055042  1
  Bi  Bi1  1  0.573930  0.055042  0.505589  1
  Pb  Pb2  1  0.008694  0.125463  0.125463  1
  Pb  Pb3  1  0.008766  0.639973  0.639973  1
  Pd  Pd4  1  0.463873  0.960530  0.960530  1
  Pd  Pd5  1  0.477447  0.551835  0.551835  1
  Pd  Pd6  1  0.128679  0.171527  0.659041  1
  Pd  Pd7  1  0.128679  0.659041  0.171527  1
