# generated using pymatgen
data_Mn2SnO4
_symmetry_space_group_name_H-M   'P 1'
_cell_length_a   6.39382591
_cell_length_b   6.32625816
_cell_length_c   6.39382541
_cell_angle_alpha   60.34895827
_cell_angle_beta   60.45186981
_cell_angle_gamma   60.34896240
_symmetry_Int_Tables_number   1
_chemical_formula_structural   Mn2SnO4
_chemical_formula_sum   'Mn4 Sn2 O8'
_cell_volume   184.45946254
_cell_formula_units_Z   2
loop_
 _symmetry_equiv_pos_site_id
 _symmetry_equiv_pos_as_xyz
  1  'x, y, z'
loop_
 _atom_site_type_symbol
 _atom_site_label
 _atom_site_symmetry_multiplicity
 _atom_site_fract_x
 _atom_site_fract_y
 _atom_site_fract_z
 _atom_site_occupancy
  Mn  Mn0  1  0.015504  0.984496  0.015504  1
  Mn  Mn1  1  0.234496  0.265504  0.234496  1
  Mn  Mn2  1  0.625000  0.125000  0.625000  1
  Mn  Mn3  1  0.625000  0.625000  0.625000  1
  Sn  Sn4  1  0.125000  0.625000  0.625000  1
  Sn  Sn5  1  0.625000  0.625000  0.125000  1
  O  O6  1  0.375003  0.398876  0.375003  1
  O  O7  1  0.375003  0.851117  0.375003  1
  O  O8  1  0.370183  0.396983  0.835851  1
  O  O9  1  0.835851  0.396983  0.370183  1
  O  O10  1  0.414149  0.853017  0.879817  1
  O  O11  1  0.879817  0.853017  0.414149  1
  O  O12  1  0.874997  0.398883  0.874997  1
  O  O13  1  0.874997  0.851124  0.874997  1
