# generated using pymatgen
data_Li2CuO2
_symmetry_space_group_name_H-M   'P 1'
_cell_length_a   2.90570461
_cell_length_b   3.73798212
_cell_length_c   5.23059788
_cell_angle_alpha   110.93562648
_cell_angle_beta   106.12657619
_cell_angle_gamma   89.99999996
_symmetry_Int_Tables_number   1
_chemical_formula_structural   Li2CuO2
_chemical_formula_sum   'Li2 Cu1 O2'
_cell_volume   50.66064202
_cell_formula_units_Z   1
loop_
 _symmetry_equiv_pos_site_id
 _symmetry_equiv_pos_as_xyz
  1  'x, y, z'
loop_
 _atom_site_type_symbol
 _atom_site_label
 _atom_site_symmetry_multiplicity
 _atom_site_fract_x
 _atom_site_fract_y
 _atom_site_fract_z
 _atom_site_occupancy
  Li  Li0  1  0.708439  0.208439  0.416879  1
  Li  Li1  1  0.291561  0.791561  0.583121  1
  O  O2  1  0.643749  0.643749  0.287498  1
  O  O3  1  0.356251  0.356251  0.712502  1
  Cu  Cu4  1  0.000000  0.500000  0.000000  1
