# generated using pymatgen
data_SnBi
_symmetry_space_group_name_H-M   'P 1'
_cell_length_a   6.41542146
_cell_length_b   6.41542156
_cell_length_c   6.58352026
_cell_angle_alpha   90.00000000
_cell_angle_beta   90.00000000
_cell_angle_gamma   116.30340223
_symmetry_Int_Tables_number   1
_chemical_formula_structural   SnBi
_chemical_formula_sum   'Sn4 Bi4'
_cell_volume   242.90672707
_cell_formula_units_Z   4
loop_
 _symmetry_equiv_pos_site_id
 _symmetry_equiv_pos_as_xyz
  1  'x, y, z'
loop_
 _atom_site_type_symbol
 _atom_site_label
 _atom_site_symmetry_multiplicity
 _atom_site_fract_x
 _atom_site_fract_y
 _atom_site_fract_z
 _atom_site_occupancy
  Sn  Sn0  1  0.781487  0.218513  0.000000  1
  Sn  Sn1  1  0.218513  0.781487  0.000000  1
  Sn  Sn2  1  0.281487  0.718513  0.500000  1
  Sn  Sn3  1  0.718513  0.281487  0.500000  1
  Bi  Bi4  1  0.170211  0.170211  0.321914  1
  Bi  Bi5  1  0.829789  0.829789  0.678086  1
  Bi  Bi6  1  0.329789  0.329789  0.821914  1
  Bi  Bi7  1  0.670211  0.670211  0.178086  1
