# generated using pymatgen
data_TiAsRh
_symmetry_space_group_name_H-M   'P 1'
_cell_length_a   3.85202565
_cell_length_b   6.39165519
_cell_length_c   7.46280453
_cell_angle_alpha   90.00000000
_cell_angle_beta   90.00000000
_cell_angle_gamma   90.00000000
_symmetry_Int_Tables_number   1
_chemical_formula_structural   TiAsRh
_chemical_formula_sum   'Ti4 As4 Rh4'
_cell_volume   183.74036507
_cell_formula_units_Z   4
loop_
 _symmetry_equiv_pos_site_id
 _symmetry_equiv_pos_as_xyz
  1  'x, y, z'
loop_
 _atom_site_type_symbol
 _atom_site_label
 _atom_site_symmetry_multiplicity
 _atom_site_fract_x
 _atom_site_fract_y
 _atom_site_fract_z
 _atom_site_occupancy
  Rh  Rh0  1  0.750000  0.144003  0.936169  1
  Rh  Rh1  1  0.250000  0.855997  0.063831  1
  Rh  Rh2  1  0.750000  0.644003  0.563831  1
  Rh  Rh3  1  0.250000  0.355997  0.436169  1
  Ti  Ti4  1  0.750000  0.030935  0.318463  1
  Ti  Ti5  1  0.250000  0.969065  0.681537  1
  Ti  Ti6  1  0.750000  0.530935  0.181537  1
  Ti  Ti7  1  0.250000  0.469065  0.818463  1
  As  As8  1  0.750000  0.749293  0.878067  1
  As  As9  1  0.250000  0.250707  0.121933  1
  As  As10  1  0.750000  0.249293  0.621933  1
  As  As11  1  0.250000  0.750707  0.378067  1
