# generated using pymatgen
data_SiO2
_symmetry_space_group_name_H-M   'P 1'
_cell_length_a   5.27472964
_cell_length_b   5.54552743
_cell_length_c   5.99975562
_cell_angle_alpha   74.68400528
_cell_angle_beta   80.09350587
_cell_angle_gamma   61.06684408
_symmetry_Int_Tables_number   1
_chemical_formula_structural   SiO2
_chemical_formula_sum   'Si4 O8'
_cell_volume   147.93591896
_cell_formula_units_Z   4
loop_
 _symmetry_equiv_pos_site_id
 _symmetry_equiv_pos_as_xyz
  1  'x, y, z'
loop_
 _atom_site_type_symbol
 _atom_site_label
 _atom_site_symmetry_multiplicity
 _atom_site_fract_x
 _atom_site_fract_y
 _atom_site_fract_z
 _atom_site_occupancy
  Si  Si0  1  0.665605  0.497643  0.389865  1
  Si  Si1  1  0.063088  0.933530  0.473773  1
  Si  Si2  1  0.746669  0.730480  0.914164  1
  Si  Si3  1  0.648919  0.230764  0.083022  1
  O  O4  1  0.551944  0.062515  0.952991  1
  O  O5  1  0.965561  0.000040  0.205820  1
  O  O6  1  0.418265  0.788286  0.467669  1
  O  O7  1  0.874922  0.569745  0.172432  1
  O  O8  1  0.472004  0.370877  0.310176  1
  O  O9  1  0.957757  0.732408  0.680329  1
  O  O10  1  0.913807  0.235227  0.558489  1
  O  O11  1  0.614079  0.522385  0.890110  1
