# generated using pymatgen
data_SrZrS3
_symmetry_space_group_name_H-M   'P 1'
_cell_length_a   6.79215614
_cell_length_b   7.18420317
_cell_length_c   9.84614163
_cell_angle_alpha   90.00000000
_cell_angle_beta   90.00000000
_cell_angle_gamma   90.00000000
_symmetry_Int_Tables_number   1
_chemical_formula_structural   SrZrS3
_chemical_formula_sum   'Sr4 Zr4 S12'
_cell_volume   480.45458836
_cell_formula_units_Z   4
loop_
 _symmetry_equiv_pos_site_id
 _symmetry_equiv_pos_as_xyz
  1  'x, y, z'
loop_
 _atom_site_type_symbol
 _atom_site_label
 _atom_site_symmetry_multiplicity
 _atom_site_fract_x
 _atom_site_fract_y
 _atom_site_fract_z
 _atom_site_occupancy
  S  S0  1  0.401723  0.519885  0.750000  1
  S  S1  1  0.901723  0.980115  0.250000  1
  S  S2  1  0.098277  0.019885  0.750000  1
  S  S3  1  0.598277  0.480115  0.250000  1
  S  S4  1  0.192293  0.303219  0.050523  1
  S  S5  1  0.692293  0.196781  0.949477  1
  S  S6  1  0.307707  0.803219  0.449477  1
  S  S7  1  0.807707  0.696781  0.550523  1
  S  S8  1  0.192293  0.303219  0.449477  1
  S  S9  1  0.692293  0.196781  0.550523  1
  S  S10  1  0.307707  0.803219  0.050523  1
  S  S11  1  0.807707  0.696781  0.949477  1
  Sr  Sr12  1  0.475011  0.080130  0.250000  1
  Sr  Sr13  1  0.975011  0.419870  0.750000  1
  Sr  Sr14  1  0.024989  0.580130  0.250000  1
  Sr  Sr15  1  0.524989  0.919870  0.750000  1
  Zr  Zr16  1  0.000000  0.000000  0.000000  1
  Zr  Zr17  1  0.500000  0.500000  0.000000  1
  Zr  Zr18  1  0.500000  0.500000  0.500000  1
  Zr  Zr19  1  0.000000  0.000000  0.500000  1
