# generated using pymatgen
data_SiO2
_symmetry_space_group_name_H-M   'P 1'
_cell_length_a   4.37892280
_cell_length_b   11.78282723
_cell_length_c   11.78282723
_cell_angle_alpha   90.00000000
_cell_angle_beta   90.00000000
_cell_angle_gamma   90.00000000
_symmetry_Int_Tables_number   1
_chemical_formula_structural   SiO2
_chemical_formula_sum   'Si16 O32'
_cell_volume   607.94782371
_cell_formula_units_Z   16
loop_
 _symmetry_equiv_pos_site_id
 _symmetry_equiv_pos_as_xyz
  1  'x, y, z'
loop_
 _atom_site_type_symbol
 _atom_site_label
 _atom_site_symmetry_multiplicity
 _atom_site_fract_x
 _atom_site_fract_y
 _atom_site_fract_z
 _atom_site_occupancy
  Si  Si0  1  0.288043  0.829185  0.987031  1
  Si  Si1  1  0.266275  0.334227  0.011922  1
  Si  Si2  1  0.288043  0.512969  0.829185  1
  Si  Si3  1  0.266275  0.488078  0.334227  1
  Si  Si4  1  0.733725  0.988078  0.834227  1
  Si  Si5  1  0.288043  0.670815  0.512969  1
  Si  Si6  1  0.733725  0.511922  0.665773  1
  Si  Si7  1  0.266275  0.165773  0.488078  1
  Si  Si8  1  0.711957  0.170815  0.012969  1
  Si  Si9  1  0.711957  0.012969  0.329185  1
  Si  Si10  1  0.266275  0.011922  0.165773  1
  Si  Si11  1  0.733725  0.834227  0.511922  1
  Si  Si12  1  0.711957  0.487031  0.170815  1
  Si  Si13  1  0.288043  0.987031  0.670815  1
  Si  Si14  1  0.733725  0.665773  0.988078  1
  Si  Si15  1  0.711957  0.329185  0.487031  1
  O  O16  1  0.864158  0.569520  0.075199  1
  O  O17  1  0.485669  0.391535  0.110897  1
  O  O18  1  0.984894  0.244875  0.438315  1
  O  O19  1  0.513146  0.062181  0.751097  1
  O  O20  1  0.486854  0.562181  0.251097  1
  O  O21  1  0.514331  0.889103  0.891535  1
  O  O22  1  0.135842  0.924801  0.069520  1
  O  O23  1  0.864158  0.075199  0.930480  1
  O  O24  1  0.864158  0.930480  0.424801  1
  O  O25  1  0.514331  0.610897  0.608465  1
  O  O26  1  0.486854  0.937819  0.248903  1
  O  O27  1  0.513146  0.437819  0.748903  1
  O  O28  1  0.135842  0.430480  0.924801  1
  O  O29  1  0.135842  0.575199  0.430480  1
  O  O30  1  0.984894  0.255125  0.061685  1
  O  O31  1  0.513146  0.751097  0.437819  1
  O  O32  1  0.984894  0.061685  0.244875  1
  O  O33  1  0.513146  0.748903  0.062181  1
  O  O34  1  0.135842  0.069520  0.575199  1
  O  O35  1  0.015106  0.561685  0.744875  1
  O  O36  1  0.864158  0.424801  0.569520  1
  O  O37  1  0.486854  0.251097  0.937819  1
  O  O38  1  0.015106  0.938315  0.755125  1
  O  O39  1  0.485669  0.110897  0.108465  1
  O  O40  1  0.514331  0.608465  0.889103  1
  O  O41  1  0.015106  0.744875  0.938315  1
  O  O42  1  0.984894  0.438315  0.255125  1
  O  O43  1  0.485669  0.389103  0.391535  1
  O  O44  1  0.015106  0.755125  0.561685  1
  O  O45  1  0.514331  0.891535  0.610897  1
  O  O46  1  0.486854  0.248903  0.562181  1
  O  O47  1  0.485669  0.108465  0.389103  1
