# generated using pymatgen
data_CaGaN
_symmetry_space_group_name_H-M   'P 1'
_cell_length_a   3.59869378
_cell_length_b   3.59869378
_cell_length_c   7.55830889
_cell_angle_alpha   90.00000000
_cell_angle_beta   90.00000000
_cell_angle_gamma   90.00000000
_symmetry_Int_Tables_number   1
_chemical_formula_structural   CaGaN
_chemical_formula_sum   'Ca2 Ga2 N2'
_cell_volume   97.88461185
_cell_formula_units_Z   2
loop_
 _symmetry_equiv_pos_site_id
 _symmetry_equiv_pos_as_xyz
  1  'x, y, z'
loop_
 _atom_site_type_symbol
 _atom_site_label
 _atom_site_symmetry_multiplicity
 _atom_site_fract_x
 _atom_site_fract_y
 _atom_site_fract_z
 _atom_site_occupancy
  N  N0  1  0.750000  0.750000  0.671156  1
  N  N1  1  0.250000  0.250000  0.328844  1
  Ca  Ca2  1  0.250000  0.250000  0.648659  1
  Ca  Ca3  1  0.750000  0.750000  0.351341  1
  Ga  Ga4  1  0.750000  0.750000  0.917321  1
  Ga  Ga5  1  0.250000  0.250000  0.082679  1
