# generated using pymatgen
data_Sr2Cu3(SO)2
_symmetry_space_group_name_H-M   'P 1'
_cell_length_a   3.93470267
_cell_length_b   3.93470267
_cell_length_c   9.61901699
_cell_angle_alpha   101.80182754
_cell_angle_beta   101.80182758
_cell_angle_gamma   90.00000003
_symmetry_Int_Tables_number   1
_chemical_formula_structural   Sr2Cu3(SO)2
_chemical_formula_sum   'Sr2 Cu3 S2 O2'
_cell_volume   142.55491261
_cell_formula_units_Z   1
loop_
 _symmetry_equiv_pos_site_id
 _symmetry_equiv_pos_as_xyz
  1  'x, y, z'
loop_
 _atom_site_type_symbol
 _atom_site_label
 _atom_site_symmetry_multiplicity
 _atom_site_fract_x
 _atom_site_fract_y
 _atom_site_fract_z
 _atom_site_occupancy
  O  O0  1  0.500000  0.000000  0.000000  1
  O  O1  1  0.000000  0.500000  0.000000  1
  S  S2  1  0.174116  0.174116  0.348232  1
  S  S3  1  0.825884  0.825884  0.651768  1
  Cu  Cu4  1  0.000000  0.000000  0.000000  1
  Cu  Cu5  1  0.750000  0.250000  0.500000  1
  Cu  Cu6  1  0.250000  0.750000  0.500000  1
  Sr  Sr7  1  0.591760  0.591760  0.183520  1
  Sr  Sr8  1  0.408240  0.408240  0.816480  1
