# generated using pymatgen
data_TcB
_symmetry_space_group_name_H-M   'P 1'
_cell_length_a   3.00063752
_cell_length_b   3.00067466
_cell_length_c   5.40634713
_cell_angle_alpha   90.00000000
_cell_angle_beta   90.00000000
_cell_angle_gamma   119.99959052
_symmetry_Int_Tables_number   1
_chemical_formula_structural   TcB
_chemical_formula_sum   'Tc2 B2'
_cell_volume   42.15691264
_cell_formula_units_Z   2
loop_
 _symmetry_equiv_pos_site_id
 _symmetry_equiv_pos_as_xyz
  1  'x, y, z'
loop_
 _atom_site_type_symbol
 _atom_site_label
 _atom_site_symmetry_multiplicity
 _atom_site_fract_x
 _atom_site_fract_y
 _atom_site_fract_z
 _atom_site_occupancy
  Tc  Tc0  1  0.333314  0.666628  0.250000  1
  Tc  Tc1  1  0.666686  0.333372  0.750000  1
  B  B2  1  0.000000  0.000000  0.500000  1
  B  B3  1  0.000000  0.000000  0.000000  1
