# generated using pymatgen
data_Zn3N2
_symmetry_space_group_name_H-M   'P 1'
_cell_length_a   8.53854428
_cell_length_b   8.53854428
_cell_length_c   8.53854428
_cell_angle_alpha   109.47122066
_cell_angle_beta   109.47122065
_cell_angle_gamma   109.47122059
_symmetry_Int_Tables_number   1
_chemical_formula_structural   Zn3N2
_chemical_formula_sum   'Zn24 N16'
_cell_volume   479.21412898
_cell_formula_units_Z   8
loop_
 _symmetry_equiv_pos_site_id
 _symmetry_equiv_pos_as_xyz
  1  'x, y, z'
loop_
 _atom_site_type_symbol
 _atom_site_label
 _atom_site_symmetry_multiplicity
 _atom_site_fract_x
 _atom_site_fract_y
 _atom_site_fract_z
 _atom_site_occupancy
  N  N0  1  0.250000  0.730832  0.480832  1
  N  N1  1  0.019168  0.750000  0.769168  1
  N  N2  1  0.769168  0.019168  0.750000  1
  N  N3  1  0.480832  0.250000  0.730832  1
  N  N4  1  0.730832  0.480832  0.250000  1
  N  N5  1  0.750000  0.769168  0.019168  1
  N  N6  1  0.750000  0.269168  0.519168  1
  N  N7  1  0.980832  0.250000  0.230832  1
  N  N8  1  0.230832  0.980832  0.250000  1
  N  N9  1  0.519168  0.750000  0.269168  1
  N  N10  1  0.269168  0.519168  0.750000  1
  N  N11  1  0.250000  0.230832  0.980832  1
  N  N12  1  0.000000  0.500000  0.000000  1
  N  N13  1  0.500000  0.000000  0.000000  1
  N  N14  1  0.000000  0.000000  0.500000  1
  N  N15  1  0.500000  0.500000  0.500000  1
  Zn  Zn16  1  0.048788  0.277390  0.026932  1
  Zn  Zn17  1  0.271398  0.749541  0.222610  1
  Zn  Zn18  1  0.750459  0.021856  0.473068  1
  Zn  Zn19  1  0.451212  0.478144  0.228602  1
  Zn  Zn20  1  0.228602  0.451212  0.478144  1
  Zn  Zn21  1  0.277390  0.026932  0.048788  1
  Zn  Zn22  1  0.222610  0.271398  0.749541  1
  Zn  Zn23  1  0.021856  0.473068  0.750459  1
  Zn  Zn24  1  0.473068  0.750459  0.021856  1
  Zn  Zn25  1  0.749541  0.222610  0.271398  1
  Zn  Zn26  1  0.026932  0.048788  0.277390  1
  Zn  Zn27  1  0.478144  0.228602  0.451212  1
  Zn  Zn28  1  0.978144  0.526932  0.249541  1
  Zn  Zn29  1  0.777390  0.728602  0.250459  1
  Zn  Zn30  1  0.722610  0.973068  0.951212  1
  Zn  Zn31  1  0.771398  0.548788  0.521856  1
  Zn  Zn32  1  0.548788  0.521856  0.771398  1
  Zn  Zn33  1  0.249541  0.978144  0.526932  1
  Zn  Zn34  1  0.728602  0.250459  0.777390  1
  Zn  Zn35  1  0.951212  0.722610  0.973068  1
  Zn  Zn36  1  0.526932  0.249541  0.978144  1
  Zn  Zn37  1  0.250459  0.777390  0.728602  1
  Zn  Zn38  1  0.973068  0.951212  0.722610  1
  Zn  Zn39  1  0.521856  0.771398  0.548788  1
