# generated using pymatgen
data_Ti(WO4)2
_symmetry_space_group_name_H-M   'P 1'
_cell_length_a   5.04710203
_cell_length_b   5.82508142
_cell_length_c   9.33503331
_cell_angle_alpha   90.00000000
_cell_angle_beta   91.12231519
_cell_angle_gamma   90.00000000
_symmetry_Int_Tables_number   1
_chemical_formula_structural   Ti(WO4)2
_chemical_formula_sum   'Ti2 W4 O16'
_cell_volume   274.39527805
_cell_formula_units_Z   2
loop_
 _symmetry_equiv_pos_site_id
 _symmetry_equiv_pos_as_xyz
  1  'x, y, z'
loop_
 _atom_site_type_symbol
 _atom_site_label
 _atom_site_symmetry_multiplicity
 _atom_site_fract_x
 _atom_site_fract_y
 _atom_site_fract_z
 _atom_site_occupancy
  Ti  Ti0  1  0.750000  0.371791  0.250000  1
  Ti  Ti1  1  0.250000  0.628208  0.750000  1
  W  W2  1  0.238139  0.162194  0.502277  1
  W  W3  1  0.261860  0.162194  0.997724  1
  W  W4  1  0.761861  0.837806  0.497723  1
  W  W5  1  0.738140  0.837806  0.002276  1
  O  O6  1  0.427029  0.338383  0.138778  1
  O  O7  1  0.072970  0.338383  0.361221  1
  O  O8  1  0.572971  0.661616  0.861222  1
  O  O9  1  0.927029  0.661616  0.638779  1
  O  O10  1  0.423542  0.885490  0.606922  1
  O  O11  1  0.076458  0.885490  0.893078  1
  O  O12  1  0.576458  0.114510  0.393078  1
  O  O13  1  0.923542  0.114510  0.106922  1
  O  O14  1  0.864774  0.601847  0.121168  1
  O  O15  1  0.635226  0.601847  0.378832  1
  O  O16  1  0.135226  0.398154  0.878832  1
  O  O17  1  0.364774  0.398154  0.621168  1
  O  O18  1  0.437340  0.891551  0.110697  1
  O  O19  1  0.562660  0.108450  0.889303  1
  O  O20  1  0.062661  0.891551  0.389304  1
  O  O21  1  0.937339  0.108450  0.610696  1
