# generated using pymatgen
data_Sc2Al3Ru
_symmetry_space_group_name_H-M   'P 1'
_cell_length_a   5.30473367
_cell_length_b   5.30473367
_cell_length_c   8.55627983
_cell_angle_alpha   90.00000000
_cell_angle_beta   90.00000000
_cell_angle_gamma   119.99999995
_symmetry_Int_Tables_number   1
_chemical_formula_structural   Sc2Al3Ru
_chemical_formula_sum   'Sc4 Al6 Ru2'
_cell_volume   208.51763019
_cell_formula_units_Z   2
loop_
 _symmetry_equiv_pos_site_id
 _symmetry_equiv_pos_as_xyz
  1  'x, y, z'
loop_
 _atom_site_type_symbol
 _atom_site_label
 _atom_site_symmetry_multiplicity
 _atom_site_fract_x
 _atom_site_fract_y
 _atom_site_fract_z
 _atom_site_occupancy
  Al  Al0  1  0.834875  0.669750  0.250000  1
  Al  Al1  1  0.165125  0.834875  0.750000  1
  Al  Al2  1  0.669750  0.834875  0.750000  1
  Al  Al3  1  0.330250  0.165125  0.250000  1
  Al  Al4  1  0.834875  0.165125  0.250000  1
  Al  Al5  1  0.165125  0.330250  0.750000  1
  Sc  Sc6  1  0.333333  0.666667  0.055192  1
  Sc  Sc7  1  0.666667  0.333333  0.555192  1
  Sc  Sc8  1  0.333333  0.666667  0.444808  1
  Sc  Sc9  1  0.666667  0.333333  0.944808  1
  Ru  Ru10  1  0.000000  0.000000  0.500000  1
  Ru  Ru11  1  0.000000  0.000000  0.000000  1
