# generated using pymatgen
data_K3BN2
_symmetry_space_group_name_H-M   'P 1'
_cell_length_a   6.50075192
_cell_length_b   8.81794443
_cell_length_c   9.08097800
_cell_angle_alpha   90.00000000
_cell_angle_beta   111.24469695
_cell_angle_gamma   90.00000000
_symmetry_Int_Tables_number   1
_chemical_formula_structural   K3BN2
_chemical_formula_sum   'K12 B4 N8'
_cell_volume   485.17541127
_cell_formula_units_Z   4
loop_
 _symmetry_equiv_pos_site_id
 _symmetry_equiv_pos_as_xyz
  1  'x, y, z'
loop_
 _atom_site_type_symbol
 _atom_site_label
 _atom_site_symmetry_multiplicity
 _atom_site_fract_x
 _atom_site_fract_y
 _atom_site_fract_z
 _atom_site_occupancy
  K  K0  1  0.252670  0.043185  0.991697  1
  K  K1  1  0.747330  0.543185  0.508303  1
  K  K2  1  0.747330  0.956815  0.008303  1
  K  K3  1  0.252670  0.456815  0.491697  1
  K  K4  1  0.236933  0.468857  0.882323  1
  K  K5  1  0.763067  0.968857  0.617677  1
  K  K6  1  0.763067  0.531143  0.117677  1
  K  K7  1  0.236933  0.031143  0.382323  1
  K  K8  1  0.744801  0.295102  0.813580  1
  K  K9  1  0.255199  0.795102  0.686420  1
  K  K10  1  0.255199  0.704898  0.186420  1
  K  K11  1  0.744801  0.204898  0.313580  1
  B  B12  1  0.211531  0.176741  0.678464  1
  B  B13  1  0.788469  0.676741  0.821536  1
  B  B14  1  0.788469  0.823259  0.321536  1
  B  B15  1  0.211531  0.323259  0.178464  1
  N  N16  1  0.399407  0.091937  0.724315  1
  N  N17  1  0.600593  0.591937  0.775685  1
  N  N18  1  0.600593  0.908063  0.275685  1
  N  N19  1  0.399407  0.408063  0.224315  1
  N  N20  1  0.023831  0.261679  0.633193  1
  N  N21  1  0.976169  0.761679  0.866807  1
  N  N22  1  0.976169  0.738321  0.366807  1
  N  N23  1  0.023831  0.238321  0.133193  1
