# generated using pymatgen
data_LiCaSi2
_symmetry_space_group_name_H-M   'P 1'
_cell_length_a   3.80732207
_cell_length_b   7.93413281
_cell_length_c   10.67143746
_cell_angle_alpha   90.00000000
_cell_angle_beta   90.00000000
_cell_angle_gamma   90.00000000
_symmetry_Int_Tables_number   1
_chemical_formula_structural   LiCaSi2
_chemical_formula_sum   'Li4 Ca4 Si8'
_cell_volume   322.36063734
_cell_formula_units_Z   4
loop_
 _symmetry_equiv_pos_site_id
 _symmetry_equiv_pos_as_xyz
  1  'x, y, z'
loop_
 _atom_site_type_symbol
 _atom_site_label
 _atom_site_symmetry_multiplicity
 _atom_site_fract_x
 _atom_site_fract_y
 _atom_site_fract_z
 _atom_site_occupancy
  Li  Li0  1  0.250000  0.998231  0.612292  1
  Li  Li1  1  0.250000  0.498231  0.887708  1
  Li  Li2  1  0.750000  0.501769  0.112292  1
  Li  Li3  1  0.750000  0.001769  0.387708  1
  Ca  Ca4  1  0.750000  0.364365  0.635649  1
  Ca  Ca5  1  0.250000  0.135635  0.135649  1
  Ca  Ca6  1  0.750000  0.864365  0.864351  1
  Ca  Ca7  1  0.250000  0.635635  0.364351  1
  Si  Si8  1  0.250000  0.665377  0.674258  1
  Si  Si9  1  0.250000  0.165377  0.825742  1
  Si  Si10  1  0.750000  0.269184  0.932140  1
  Si  Si11  1  0.250000  0.230816  0.432140  1
  Si  Si12  1  0.750000  0.334623  0.325742  1
  Si  Si13  1  0.750000  0.769184  0.567860  1
  Si  Si14  1  0.250000  0.730816  0.067860  1
  Si  Si15  1  0.750000  0.834623  0.174258  1
