# generated using pymatgen
data_Ca2MnO4
_symmetry_space_group_name_H-M   'P 1'
_cell_length_a   5.24892623
_cell_length_b   5.24892623
_cell_length_c   12.79494145
_cell_angle_alpha   101.83636243
_cell_angle_beta   101.83636243
_cell_angle_gamma   89.99999998
_symmetry_Int_Tables_number   1
_chemical_formula_structural   Ca2MnO4
_chemical_formula_sum   'Ca8 Mn4 O16'
_cell_volume   337.35901910
_cell_formula_units_Z   4
loop_
 _symmetry_equiv_pos_site_id
 _symmetry_equiv_pos_as_xyz
  1  'x, y, z'
loop_
 _atom_site_type_symbol
 _atom_site_label
 _atom_site_symmetry_multiplicity
 _atom_site_fract_x
 _atom_site_fract_y
 _atom_site_fract_z
 _atom_site_occupancy
  O  O0  1  0.929659  0.070341  0.750000  1
  O  O1  1  0.179659  0.429659  0.250000  1
  O  O2  1  0.570341  0.820341  0.250000  1
  O  O3  1  0.320341  0.679659  0.750000  1
  O  O4  1  0.070341  0.929659  0.250000  1
  O  O5  1  0.820341  0.570341  0.750000  1
  O  O6  1  0.429659  0.179659  0.750000  1
  O  O7  1  0.679659  0.320341  0.250000  1
  O  O8  1  0.455586  0.205586  0.411171  1
  O  O9  1  0.705586  0.955586  0.911171  1
  O  O10  1  0.044414  0.294414  0.588829  1
  O  O11  1  0.794414  0.544414  0.088829  1
  O  O12  1  0.205586  0.455586  0.911171  1
  O  O13  1  0.955586  0.705586  0.411171  1
  O  O14  1  0.294414  0.044414  0.088829  1
  O  O15  1  0.544414  0.794414  0.588829  1
  Ca  Ca16  1  0.300128  0.550128  0.100255  1
  Ca  Ca17  1  0.050128  0.800128  0.600255  1
  Ca  Ca18  1  0.199872  0.949872  0.899745  1
  Ca  Ca19  1  0.449872  0.699872  0.399745  1
  Ca  Ca20  1  0.550128  0.300128  0.600255  1
  Ca  Ca21  1  0.800128  0.050128  0.100255  1
  Ca  Ca22  1  0.949872  0.199872  0.399745  1
  Ca  Ca23  1  0.699872  0.449872  0.899745  1
  Mn  Mn24  1  0.125000  0.375000  0.750000  1
  Mn  Mn25  1  0.875000  0.625000  0.250000  1
  Mn  Mn26  1  0.375000  0.125000  0.250000  1
  Mn  Mn27  1  0.625000  0.875000  0.750000  1
