# generated using pymatgen
data_Ti(NbSe2)2
_symmetry_space_group_name_H-M   'P 1'
_cell_length_a   3.49684470
_cell_length_b   6.39237559
_cell_length_c   7.20081278
_cell_angle_alpha   114.10598500
_cell_angle_beta   104.05239096
_cell_angle_gamma   90.00000000
_symmetry_Int_Tables_number   1
_chemical_formula_structural   Ti(NbSe2)2
_chemical_formula_sum   'Ti1 Nb2 Se4'
_cell_volume   141.63015975
_cell_formula_units_Z   1
loop_
 _symmetry_equiv_pos_site_id
 _symmetry_equiv_pos_as_xyz
  1  'x, y, z'
loop_
 _atom_site_type_symbol
 _atom_site_label
 _atom_site_symmetry_multiplicity
 _atom_site_fract_x
 _atom_site_fract_y
 _atom_site_fract_z
 _atom_site_occupancy
  Ti  Ti0  1  0.000000  0.000000  0.000000  1
  Nb  Nb1  1  0.256720  0.323295  0.513441  1
  Nb  Nb2  1  0.743280  0.676705  0.486559  1
  Se  Se3  1  0.101592  0.444125  0.203185  1
  Se  Se4  1  0.898408  0.555875  0.796815  1
  Se  Se5  1  0.363450  0.025697  0.726901  1
  Se  Se6  1  0.636550  0.974303  0.273099  1
