# generated using pymatgen
data_MoN
_symmetry_space_group_name_H-M   'P 1'
_cell_length_a   5.77763457
_cell_length_b   5.77763457
_cell_length_c   5.67835306
_cell_angle_alpha   90.00000000
_cell_angle_beta   90.00000000
_cell_angle_gamma   120.00000005
_symmetry_Int_Tables_number   1
_chemical_formula_structural   MoN
_chemical_formula_sum   'Mo8 N8'
_cell_volume   164.15463992
_cell_formula_units_Z   8
loop_
 _symmetry_equiv_pos_site_id
 _symmetry_equiv_pos_as_xyz
  1  'x, y, z'
loop_
 _atom_site_type_symbol
 _atom_site_label
 _atom_site_symmetry_multiplicity
 _atom_site_fract_x
 _atom_site_fract_y
 _atom_site_fract_z
 _atom_site_occupancy
  N  N0  1  0.833567  0.166433  0.748246  1
  N  N1  1  0.667135  0.833567  0.248246  1
  N  N2  1  0.166433  0.332865  0.248246  1
  N  N3  1  0.833567  0.667135  0.748246  1
  N  N4  1  0.332865  0.166433  0.748246  1
  N  N5  1  0.166433  0.833567  0.248246  1
  N  N6  1  0.666667  0.333333  0.220230  1
  N  N7  1  0.333333  0.666667  0.720230  1
  Mo  Mo8  1  0.511930  0.488070  0.493129  1
  Mo  Mo9  1  0.023860  0.511930  0.993129  1
  Mo  Mo10  1  0.488070  0.976140  0.993129  1
  Mo  Mo11  1  0.511930  0.023860  0.493129  1
  Mo  Mo12  1  0.976140  0.488070  0.493129  1
  Mo  Mo13  1  0.488070  0.511930  0.993129  1
  Mo  Mo14  1  0.000000  0.000000  0.482647  1
  Mo  Mo15  1  0.000000  0.000000  0.982647  1
