# generated using pymatgen
data_ZrTe3
_symmetry_space_group_name_H-M   'P 1'
_cell_length_a   3.98297497
_cell_length_b   5.95972333
_cell_length_c   10.60845553
_cell_angle_alpha   97.46571031
_cell_angle_beta   90.00000000
_cell_angle_gamma   90.00000000
_symmetry_Int_Tables_number   1
_chemical_formula_structural   ZrTe3
_chemical_formula_sum   'Zr2 Te6'
_cell_volume   249.68275157
_cell_formula_units_Z   2
loop_
 _symmetry_equiv_pos_site_id
 _symmetry_equiv_pos_as_xyz
  1  'x, y, z'
loop_
 _atom_site_type_symbol
 _atom_site_label
 _atom_site_symmetry_multiplicity
 _atom_site_fract_x
 _atom_site_fract_y
 _atom_site_fract_z
 _atom_site_occupancy
  Zr  Zr0  1  0.750000  0.712662  0.339899  1
  Zr  Zr1  1  0.250000  0.287338  0.660101  1
  Te  Te2  1  0.750000  0.237601  0.447904  1
  Te  Te3  1  0.250000  0.762399  0.552096  1
  Te  Te4  1  0.750000  0.562779  0.820172  1
  Te  Te5  1  0.250000  0.437221  0.179828  1
  Te  Te6  1  0.750000  0.090210  0.823512  1
  Te  Te7  1  0.250000  0.909790  0.176488  1
