# generated using pymatgen
data_LiNiO2
_symmetry_space_group_name_H-M   'P 1'
_cell_length_a   2.98818705
_cell_length_b   2.81970142
_cell_length_c   5.05999551
_cell_angle_alpha   90.12732250
_cell_angle_beta   93.17562491
_cell_angle_gamma   118.04447069
_symmetry_Int_Tables_number   1
_chemical_formula_structural   LiNiO2
_chemical_formula_sum   'Li1 Ni1 O2'
_cell_volume   37.55135460
_cell_formula_units_Z   1
loop_
 _symmetry_equiv_pos_site_id
 _symmetry_equiv_pos_as_xyz
  1  'x, y, z'
loop_
 _atom_site_type_symbol
 _atom_site_label
 _atom_site_symmetry_multiplicity
 _atom_site_fract_x
 _atom_site_fract_y
 _atom_site_fract_z
 _atom_site_occupancy
  Li  Li0  1  0.676070  0.337732  0.405362  1
  O  O1  1  0.297652  0.650056  0.196193  1
  O  O2  1  0.684163  0.341114  0.777735  1
  Ni  Ni3  1  1.008613  1.004400  0.971510  1
