# generated using pymatgen
data_NbB
_symmetry_space_group_name_H-M   'P 1'
_cell_length_a   3.18115446
_cell_length_b   3.31639714
_cell_length_c   4.69068027
_cell_angle_alpha   110.70210355
_cell_angle_beta   90.00000000
_cell_angle_gamma   90.00000000
_symmetry_Int_Tables_number   1
_chemical_formula_structural   NbB
_chemical_formula_sum   'Nb2 B2'
_cell_volume   46.29124945
_cell_formula_units_Z   2
loop_
 _symmetry_equiv_pos_site_id
 _symmetry_equiv_pos_as_xyz
  1  'x, y, z'
loop_
 _atom_site_type_symbol
 _atom_site_label
 _atom_site_symmetry_multiplicity
 _atom_site_fract_x
 _atom_site_fract_y
 _atom_site_fract_z
 _atom_site_occupancy
  B  B0  1  0.750000  0.441910  0.883820  1
  B  B1  1  0.250000  0.558090  0.116180  1
  Nb  Nb2  1  0.750000  0.145263  0.290526  1
  Nb  Nb3  1  0.250000  0.854737  0.709474  1
