# generated using pymatgen
data_Y2O3
_symmetry_space_group_name_H-M   'P 1'
_cell_length_a   9.26984146
_cell_length_b   9.26984146
_cell_length_c   9.26984146
_cell_angle_alpha   109.47122061
_cell_angle_beta   109.47122062
_cell_angle_gamma   109.47122064
_symmetry_Int_Tables_number   1
_chemical_formula_structural   Y2O3
_chemical_formula_sum   'Y16 O24'
_cell_volume   613.18995094
_cell_formula_units_Z   8
loop_
 _symmetry_equiv_pos_site_id
 _symmetry_equiv_pos_as_xyz
  1  'x, y, z'
loop_
 _atom_site_type_symbol
 _atom_site_label
 _atom_site_symmetry_multiplicity
 _atom_site_fract_x
 _atom_site_fract_y
 _atom_site_fract_z
 _atom_site_occupancy
  O  O0  1  0.031465  0.488842  0.760719  1
  O  O1  1  0.228123  0.270746  0.739281  1
  O  O2  1  0.271877  0.011158  0.042623  1
  O  O3  1  0.229254  0.457377  0.468535  1
  O  O4  1  0.457377  0.468535  0.229254  1
  O  O5  1  0.760719  0.031465  0.488842  1
  O  O6  1  0.270746  0.739281  0.228123  1
  O  O7  1  0.042623  0.271877  0.011158  1
  O  O8  1  0.488842  0.760719  0.031465  1
  O  O9  1  0.739281  0.228123  0.270746  1
  O  O10  1  0.011158  0.042623  0.271877  1
  O  O11  1  0.468535  0.229254  0.457377  1
  O  O12  1  0.968535  0.511158  0.239281  1
  O  O13  1  0.771877  0.729254  0.260719  1
  O  O14  1  0.728123  0.988842  0.957377  1
  O  O15  1  0.770746  0.542623  0.531465  1
  O  O16  1  0.531465  0.770746  0.542623  1
  O  O17  1  0.988842  0.957377  0.728123  1
  O  O18  1  0.260719  0.771877  0.729254  1
  O  O19  1  0.511158  0.239281  0.968535  1
  O  O20  1  0.957377  0.728123  0.988842  1
  O  O21  1  0.729254  0.260719  0.771877  1
  O  O22  1  0.239281  0.968535  0.511158  1
  O  O23  1  0.542623  0.531465  0.770746  1
  Y  Y24  1  0.250000  0.717318  0.467318  1
  Y  Y25  1  0.032682  0.750000  0.782682  1
  Y  Y26  1  0.782682  0.032682  0.750000  1
  Y  Y27  1  0.467318  0.250000  0.717318  1
  Y  Y28  1  0.717318  0.467318  0.250000  1
  Y  Y29  1  0.750000  0.782682  0.032682  1
  Y  Y30  1  0.750000  0.282682  0.532682  1
  Y  Y31  1  0.967318  0.250000  0.217318  1
  Y  Y32  1  0.217318  0.967318  0.250000  1
  Y  Y33  1  0.532682  0.750000  0.282682  1
  Y  Y34  1  0.282682  0.532682  0.750000  1
  Y  Y35  1  0.250000  0.217318  0.967318  1
  Y  Y36  1  0.000000  0.500000  0.000000  1
  Y  Y37  1  0.500000  0.000000  0.000000  1
  Y  Y38  1  0.000000  0.000000  0.500000  1
  Y  Y39  1  0.500000  0.500000  0.500000  1
