# generated using pymatgen
data_TiP2
_symmetry_space_group_name_H-M   'P 1'
_cell_length_a   3.35045840
_cell_length_b   6.16280290
_cell_length_c   8.27466505
_cell_angle_alpha   90.00000000
_cell_angle_beta   90.00000000
_cell_angle_gamma   90.00000000
_symmetry_Int_Tables_number   1
_chemical_formula_structural   TiP2
_chemical_formula_sum   'Ti4 P8'
_cell_volume   170.85706089
_cell_formula_units_Z   4
loop_
 _symmetry_equiv_pos_site_id
 _symmetry_equiv_pos_as_xyz
  1  'x, y, z'
loop_
 _atom_site_type_symbol
 _atom_site_label
 _atom_site_symmetry_multiplicity
 _atom_site_fract_x
 _atom_site_fract_y
 _atom_site_fract_z
 _atom_site_occupancy
  P  P0  1  0.250000  0.415054  0.864129  1
  P  P1  1  0.750000  0.584946  0.135871  1
  P  P2  1  0.250000  0.915054  0.635871  1
  P  P3  1  0.750000  0.084946  0.364129  1
  P  P4  1  0.750000  0.122087  0.960319  1
  P  P5  1  0.250000  0.877913  0.039681  1
  P  P6  1  0.750000  0.622087  0.539681  1
  P  P7  1  0.250000  0.377913  0.460319  1
  Ti  Ti8  1  0.250000  0.764743  0.332956  1
  Ti  Ti9  1  0.750000  0.235257  0.667044  1
  Ti  Ti10  1  0.250000  0.264743  0.167044  1
  Ti  Ti11  1  0.750000  0.735257  0.832956  1
