# generated using pymatgen
data_RhPb2
_symmetry_space_group_name_H-M   'P 1'
_cell_length_a   5.65986521
_cell_length_b   5.65986521
_cell_length_c   5.65986521
_cell_angle_alpha   105.98992834
_cell_angle_beta   105.98992832
_cell_angle_gamma   116.68359857
_symmetry_Int_Tables_number   1
_chemical_formula_structural   RhPb2
_chemical_formula_sum   'Rh2 Pb4'
_cell_volume   137.89276585
_cell_formula_units_Z   2
loop_
 _symmetry_equiv_pos_site_id
 _symmetry_equiv_pos_as_xyz
  1  'x, y, z'
loop_
 _atom_site_type_symbol
 _atom_site_label
 _atom_site_symmetry_multiplicity
 _atom_site_fract_x
 _atom_site_fract_y
 _atom_site_fract_z
 _atom_site_occupancy
  Rh  Rh0  1  0.750000  0.750000  0.000000  1
  Rh  Rh1  1  0.250000  0.250000  0.000000  1
  Pb  Pb2  1  0.834404  0.665596  0.500000  1
  Pb  Pb3  1  0.334404  0.834404  0.168808  1
  Pb  Pb4  1  0.165596  0.334404  0.500000  1
  Pb  Pb5  1  0.665596  0.165596  0.831192  1
