# generated using pymatgen
data_MgSiO3
_symmetry_space_group_name_H-M   'P 1'
_cell_length_a   5.04844759
_cell_length_b   7.57877321
_cell_length_c   7.57877321
_cell_angle_alpha   72.37587150
_cell_angle_beta   58.21074808
_cell_angle_gamma   58.21074808
_symmetry_Int_Tables_number   1
_chemical_formula_structural   MgSiO3
_chemical_formula_sum   'Mg4 Si4 O12'
_cell_volume   209.37235381
_cell_formula_units_Z   4
loop_
 _symmetry_equiv_pos_site_id
 _symmetry_equiv_pos_as_xyz
  1  'x, y, z'
loop_
 _atom_site_type_symbol
 _atom_site_label
 _atom_site_symmetry_multiplicity
 _atom_site_fract_x
 _atom_site_fract_y
 _atom_site_fract_z
 _atom_site_occupancy
  Mg  Mg0  1  0.750000  0.228817  0.771183  1
  Mg  Mg1  1  0.250000  0.771183  0.228817  1
  Mg  Mg2  1  0.750000  0.596282  0.403718  1
  Mg  Mg3  1  0.250000  0.403718  0.596282  1
  Si  Si4  1  0.379752  0.111884  0.292788  1
  Si  Si5  1  0.120248  0.707212  0.888116  1
  Si  Si6  1  0.620248  0.888116  0.707212  1
  Si  Si7  1  0.879752  0.292788  0.111884  1
  O  O8  1  0.719800  0.795194  0.908861  1
  O  O9  1  0.780200  0.091139  0.204806  1
  O  O10  1  0.280200  0.204806  0.091139  1
  O  O11  1  0.219800  0.908861  0.795194  1
  O  O12  1  0.891333  0.354591  0.886850  1
  O  O13  1  0.608667  0.113150  0.645409  1
  O  O14  1  0.108667  0.645409  0.113150  1
  O  O15  1  0.391333  0.886850  0.354591  1
  O  O16  1  0.398855  0.529078  0.713338  1
  O  O17  1  0.101145  0.286662  0.470922  1
  O  O18  1  0.601145  0.470922  0.286662  1
  O  O19  1  0.898855  0.713338  0.529078  1
