# generated using pymatgen
data_CaZrO3
_symmetry_space_group_name_H-M   'P 1'
_cell_length_a   5.83630895
_cell_length_b   8.10381548
_cell_length_c   5.63229175
_cell_angle_alpha   90.00000000
_cell_angle_beta   90.00000000
_cell_angle_gamma   90.00000000
_symmetry_Int_Tables_number   1
_chemical_formula_structural   CaZrO3
_chemical_formula_sum   'Ca4 Zr4 O12'
_cell_volume   266.38695915
_cell_formula_units_Z   4
loop_
 _symmetry_equiv_pos_site_id
 _symmetry_equiv_pos_as_xyz
  1  'x, y, z'
loop_
 _atom_site_type_symbol
 _atom_site_label
 _atom_site_symmetry_multiplicity
 _atom_site_fract_x
 _atom_site_fract_y
 _atom_site_fract_z
 _atom_site_occupancy
  Ca  Ca0  1  0.552223  0.250000  0.485371  1
  Ca  Ca1  1  0.052223  0.250000  0.014629  1
  Ca  Ca2  1  0.447777  0.750000  0.514629  1
  Ca  Ca3  1  0.947777  0.750000  0.985371  1
  Zr  Zr4  1  0.500000  0.000000  -0.000000  1
  Zr  Zr5  1  0.000000  0.500000  0.500000  1
  Zr  Zr6  1  0.500000  0.500000  -0.000000  1
  Zr  Zr7  1  0.000000  0.000000  0.500000  1
  O  O8  1  0.956458  0.250000  0.610719  1
  O  O9  1  0.456458  0.250000  0.889281  1
  O  O10  1  0.043542  0.750000  0.389281  1
  O  O11  1  0.543542  0.750000  0.110719  1
  O  O12  1  0.799542  0.058603  0.197056  1
  O  O13  1  0.299542  0.441397  0.302944  1
  O  O14  1  0.200458  0.558603  0.802944  1
  O  O15  1  0.700458  0.941397  0.697056  1
  O  O16  1  0.200458  0.941397  0.802944  1
  O  O17  1  0.700458  0.558603  0.697056  1
  O  O18  1  0.799542  0.441397  0.197056  1
  O  O19  1  0.299542  0.058603  0.302944  1
