# generated using pymatgen
data_BaFeF4
_symmetry_space_group_name_H-M   'P 1'
_cell_length_a   4.32168739
_cell_length_b   5.87675572
_cell_length_c   7.90654303
_cell_angle_alpha   90.00000000
_cell_angle_beta   105.86061727
_cell_angle_gamma   90.00000000
_symmetry_Int_Tables_number   1
_chemical_formula_structural   BaFeF4
_chemical_formula_sum   'Ba2 Fe2 F8'
_cell_volume   193.16161199
_cell_formula_units_Z   2
loop_
 _symmetry_equiv_pos_site_id
 _symmetry_equiv_pos_as_xyz
  1  'x, y, z'
loop_
 _atom_site_type_symbol
 _atom_site_label
 _atom_site_symmetry_multiplicity
 _atom_site_fract_x
 _atom_site_fract_y
 _atom_site_fract_z
 _atom_site_occupancy
  Ba  Ba0  1  0.848364  0.964789  0.696729  1
  Ba  Ba1  1  0.151636  0.464789  0.303271  1
  Fe  Fe2  1  0.413286  0.504523  0.826570  1
  Fe  Fe3  1  0.586714  0.004523  0.173430  1
  F  F4  1  0.918448  0.517282  0.836896  1
  F  F5  1  0.081552  0.017282  0.163104  1
  F  F6  1  0.467576  0.853335  0.935153  1
  F  F7  1  0.532424  0.353335  0.064847  1
  F  F8  1  0.697838  0.202408  0.395676  1
  F  F9  1  0.302162  0.702408  0.604324  1
  F  F10  1  0.671480  0.730063  0.342960  1
  F  F11  1  0.328520  0.230063  0.657040  1
