# generated using pymatgen
data_SiC
_symmetry_space_group_name_H-M   'P 1'
_cell_length_a   3.09396364
_cell_length_b   3.09396367
_cell_length_c   12.65213009
_cell_angle_alpha   90.00000000
_cell_angle_beta   90.00000000
_cell_angle_gamma   119.99999973
_symmetry_Int_Tables_number   1
_chemical_formula_structural   SiC
_chemical_formula_sum   'Si5 C5'
_cell_volume   104.88773240
_cell_formula_units_Z   5
loop_
 _symmetry_equiv_pos_site_id
 _symmetry_equiv_pos_as_xyz
  1  'x, y, z'
loop_
 _atom_site_type_symbol
 _atom_site_label
 _atom_site_symmetry_multiplicity
 _atom_site_fract_x
 _atom_site_fract_y
 _atom_site_fract_z
 _atom_site_occupancy
  Si  Si0  1  0.666667  0.333333  0.399849  1
  Si  Si1  1  0.666667  0.333333  0.800075  1
  Si  Si2  1  0.000000  0.000000  1.000076  1
  Si  Si3  1  0.333333  0.666667  0.199960  1
  Si  Si4  1  0.000000  0.000000  0.599864  1
  C  C5  1  0.666667  0.333333  0.950276  1
  C  C6  1  0.333333  0.666667  0.349995  1
  C  C7  1  0.000000  0.000000  0.150043  1
  C  C8  1  0.666667  0.333333  0.549803  1
  C  C9  1  0.000000  0.000000  0.750059  1
