# generated using pymatgen
data_CuS
_symmetry_space_group_name_H-M   'P 1'
_cell_length_a   3.78518166
_cell_length_b   3.78518142
_cell_length_c   16.47736926
_cell_angle_alpha   90.00000000
_cell_angle_beta   90.00000000
_cell_angle_gamma   59.99999791
_symmetry_Int_Tables_number   1
_chemical_formula_structural   CuS
_chemical_formula_sum   'Cu6 S6'
_cell_volume   204.45226395
_cell_formula_units_Z   6
loop_
 _symmetry_equiv_pos_site_id
 _symmetry_equiv_pos_as_xyz
  1  'x, y, z'
loop_
 _atom_site_type_symbol
 _atom_site_label
 _atom_site_symmetry_multiplicity
 _atom_site_fract_x
 _atom_site_fract_y
 _atom_site_fract_z
 _atom_site_occupancy
  Cu  Cu0  1  0.666666  0.666667  0.392921  1
  Cu  Cu1  1  0.333334  0.333333  0.250000  1
  Cu  Cu2  1  0.666666  0.666667  0.107079  1
  Cu  Cu3  1  0.666666  0.666667  0.750000  1
  Cu  Cu4  1  0.333334  0.333333  0.892959  1
  Cu  Cu5  1  0.333334  0.333333  0.607041  1
  S  S6  1  0.000000  0.000000  0.063764  1
  S  S7  1  0.666666  0.666667  0.250000  1
  S  S8  1  0.000000  0.000000  0.563764  1
  S  S9  1  0.000000  0.000000  0.436236  1
  S  S10  1  0.000000  0.000000  0.936236  1
  S  S11  1  0.333334  0.333333  0.750000  1
