# generated using pymatgen
data_HfOs2
_symmetry_space_group_name_H-M   'P 1'
_cell_length_a   5.21431488
_cell_length_b   5.21431515
_cell_length_c   8.57370858
_cell_angle_alpha   90.00000000
_cell_angle_beta   90.00000000
_cell_angle_gamma   119.99999829
_symmetry_Int_Tables_number   1
_chemical_formula_structural   HfOs2
_chemical_formula_sum   'Hf4 Os8'
_cell_volume   201.88027451
_cell_formula_units_Z   4
loop_
 _symmetry_equiv_pos_site_id
 _symmetry_equiv_pos_as_xyz
  1  'x, y, z'
loop_
 _atom_site_type_symbol
 _atom_site_label
 _atom_site_symmetry_multiplicity
 _atom_site_fract_x
 _atom_site_fract_y
 _atom_site_fract_z
 _atom_site_occupancy
  Hf  Hf0  1  0.333333  0.666667  0.433520  1
  Hf  Hf1  1  0.666667  0.333333  0.566480  1
  Hf  Hf2  1  0.666667  0.333333  0.933520  1
  Hf  Hf3  1  0.333333  0.666667  0.066480  1
  Os  Os4  1  0.172615  0.345229  0.750000  1
  Os  Os5  1  0.172615  0.827385  0.750000  1
  Os  Os6  1  0.345229  0.172615  0.250000  1
  Os  Os7  1  0.827385  0.654771  0.250000  1
  Os  Os8  1  0.654771  0.827385  0.750000  1
  Os  Os9  1  0.000000  0.000000  0.000000  1
  Os  Os10  1  0.827385  0.172615  0.250000  1
  Os  Os11  1  0.000000  0.000000  0.500000  1
