# generated using pymatgen
data_TiS
_symmetry_space_group_name_H-M   'P 1'
_cell_length_a   9.08083131
_cell_length_b   9.08083139
_cell_length_c   9.08083121
_cell_angle_alpha   21.97638470
_cell_angle_beta   21.97638337
_cell_angle_gamma   21.97638494
_symmetry_Int_Tables_number   1
_chemical_formula_structural   TiS
_chemical_formula_sum   'Ti3 S3'
_cell_volume   91.93090743
_cell_formula_units_Z   3
loop_
 _symmetry_equiv_pos_site_id
 _symmetry_equiv_pos_as_xyz
  1  'x, y, z'
loop_
 _atom_site_type_symbol
 _atom_site_label
 _atom_site_symmetry_multiplicity
 _atom_site_fract_x
 _atom_site_fract_y
 _atom_site_fract_z
 _atom_site_occupancy
  Ti  Ti0  1  0.619154  0.619154  0.619154  1
  Ti  Ti1  1  0.380846  0.380846  0.380846  1
  Ti  Ti2  1  0.500000  0.500000  0.500000  1
  S  S3  1  0.776614  0.776614  0.776614  1
  S  S4  1  0.223386  0.223386  0.223386  1
  S  S5  1  0.000000  0.000000  0.000000  1
