# generated using pymatgen
data_SiO2
_symmetry_space_group_name_H-M   'P 1'
_cell_length_a   8.29222056
_cell_length_b   8.29222078
_cell_length_c   7.55081294
_cell_angle_alpha   90.00000000
_cell_angle_beta   90.00000000
_cell_angle_gamma   119.99999913
_symmetry_Int_Tables_number   1
_chemical_formula_structural   SiO2
_chemical_formula_sum   'Si12 O24'
_cell_volume   449.64114861
_cell_formula_units_Z   12
loop_
 _symmetry_equiv_pos_site_id
 _symmetry_equiv_pos_as_xyz
  1  'x, y, z'
loop_
 _atom_site_type_symbol
 _atom_site_label
 _atom_site_symmetry_multiplicity
 _atom_site_fract_x
 _atom_site_fract_y
 _atom_site_fract_z
 _atom_site_occupancy
  Si  Si0  1  0.710086  0.649614  0.572605  1
  Si  Si1  1  0.939528  0.289914  0.572605  1
  Si  Si2  1  0.939528  0.649614  0.927395  1
  Si  Si3  1  0.350386  0.289914  0.927395  1
  Si  Si4  1  0.649614  0.939528  0.427395  1
  Si  Si5  1  0.060472  0.350386  0.072605  1
  Si  Si6  1  0.060472  0.710086  0.427395  1
  Si  Si7  1  0.649614  0.710086  0.072605  1
  Si  Si8  1  0.289914  0.939528  0.072605  1
  Si  Si9  1  0.289914  0.350386  0.427395  1
  Si  Si10  1  0.710086  0.060472  0.927395  1
  Si  Si11  1  0.350386  0.060472  0.572605  1
  O  O12  1  0.308079  0.164546  0.411738  1
  O  O13  1  0.602044  0.801022  0.250000  1
  O  O14  1  0.000000  0.500000  0.000000  1
  O  O15  1  0.691921  0.856467  0.911738  1
  O  O16  1  0.801022  0.602044  0.750000  1
  O  O17  1  0.856467  0.691921  0.411738  1
  O  O18  1  0.397956  0.198978  0.750000  1
  O  O19  1  0.143533  0.308079  0.588262  1
  O  O20  1  0.691921  0.835454  0.588262  1
  O  O21  1  0.308079  0.143533  0.088262  1
  O  O22  1  0.198978  0.397956  0.250000  1
  O  O23  1  0.835454  0.143533  0.411738  1
  O  O24  1  0.500000  0.500000  0.500000  1
  O  O25  1  0.198978  0.801022  0.250000  1
  O  O26  1  0.164546  0.856467  0.588262  1
  O  O27  1  0.835454  0.691921  0.088262  1
  O  O28  1  0.500000  0.000000  0.000000  1
  O  O29  1  0.164546  0.308079  0.911738  1
  O  O30  1  0.143533  0.835454  0.911738  1
  O  O31  1  0.856467  0.164546  0.088262  1
  O  O32  1  0.500000  0.000000  0.500000  1
  O  O33  1  0.500000  0.500000  0.000000  1
  O  O34  1  0.801022  0.198978  0.750000  1
  O  O35  1  0.000000  0.500000  0.500000  1
