# generated using pymatgen
data_Al3Mo
_symmetry_space_group_name_H-M   'P 1'
_cell_length_a   3.60930043
_cell_length_b   8.40519406
_cell_length_c   8.42768864
_cell_angle_alpha   101.69638690
_cell_angle_beta   102.36493937
_cell_angle_gamma   90.00024291
_symmetry_Int_Tables_number   1
_chemical_formula_structural   Al3Mo
_chemical_formula_sum   'Al12 Mo4'
_cell_volume   244.30133521
_cell_formula_units_Z   4
loop_
 _symmetry_equiv_pos_site_id
 _symmetry_equiv_pos_as_xyz
  1  'x, y, z'
loop_
 _atom_site_type_symbol
 _atom_site_label
 _atom_site_symmetry_multiplicity
 _atom_site_fract_x
 _atom_site_fract_y
 _atom_site_fract_z
 _atom_site_occupancy
  Al  Al0  1  0.126360  0.655696  0.252675  1
  Al  Al1  1  0.125095  0.146062  0.250429  1
  Al  Al2  1  0.625058  0.396947  0.250189  1
  Al  Al3  1  0.748684  0.695346  0.497425  1
  Al  Al4  1  0.503503  0.597542  0.006868  1
  Al  Al5  1  0.749709  0.204886  0.499437  1
  Al  Al6  1  0.371951  0.755745  0.743951  1
  Al  Al7  1  0.003146  0.856210  0.006203  1
  Al  Al8  1  0.497290  0.093685  0.994676  1
  Al  Al9  1  0.249944  0.953325  0.499867  1
  Al  Al10  1  0.377090  0.260559  0.754148  1
  Al  Al11  1  0.872147  0.497754  0.744155  1
  Mo  Mo12  1  0.010672  0.355652  0.021315  1
  Mo  Mo13  1  0.632574  0.903864  0.265147  1
  Mo  Mo14  1  0.242486  0.447460  0.484956  1
  Mo  Mo15  1  0.864289  0.997066  0.728559  1
