# generated using pymatgen
data_Ca(SiAu)2
_symmetry_space_group_name_H-M   'P 1'
_cell_length_a   4.37891891
_cell_length_b   4.37891891
_cell_length_c   5.92436144
_cell_angle_alpha   111.68902977
_cell_angle_beta   111.68902979
_cell_angle_gamma   89.99999996
_symmetry_Int_Tables_number   1
_chemical_formula_structural   Ca(SiAu)2
_chemical_formula_sum   'Ca1 Si2 Au2'
_cell_volume   96.84876424
_cell_formula_units_Z   1
loop_
 _symmetry_equiv_pos_site_id
 _symmetry_equiv_pos_as_xyz
  1  'x, y, z'
loop_
 _atom_site_type_symbol
 _atom_site_label
 _atom_site_symmetry_multiplicity
 _atom_site_fract_x
 _atom_site_fract_y
 _atom_site_fract_z
 _atom_site_occupancy
  Si  Si0  1  0.614976  0.614976  0.229952  1
  Si  Si1  1  0.385024  0.385024  0.770048  1
  Ca  Ca2  1  0.000000  0.000000  0.000000  1
  Au  Au3  1  0.250000  0.750000  0.500000  1
  Au  Au4  1  0.750000  0.250000  0.500000  1
