# generated using pymatgen
data_LiSiBO4
_symmetry_space_group_name_H-M   'P 1'
_cell_length_a   4.45434753
_cell_length_b   4.45434753
_cell_length_c   4.66995131
_cell_angle_alpha   118.48416384
_cell_angle_beta   118.48416380
_cell_angle_gamma   89.99999999
_symmetry_Int_Tables_number   1
_chemical_formula_structural   LiSiBO4
_chemical_formula_sum   'Li1 Si1 B1 O4'
_cell_volume   68.41001071
_cell_formula_units_Z   1
loop_
 _symmetry_equiv_pos_site_id
 _symmetry_equiv_pos_as_xyz
  1  'x, y, z'
loop_
 _atom_site_type_symbol
 _atom_site_label
 _atom_site_symmetry_multiplicity
 _atom_site_fract_x
 _atom_site_fract_y
 _atom_site_fract_z
 _atom_site_occupancy
  Li  Li0  1  0.500000  0.500000  0.000000  1
  B  B1  1  0.250000  0.750000  0.500000  1
  O  O2  1  0.143750  0.719931  0.743558  1
  O  O3  1  0.599808  0.023627  0.743558  1
  O  O4  1  0.976373  0.856250  0.256442  1
  O  O5  1  0.280069  0.400192  0.256442  1
  Si  Si6  1  0.000000  0.000000  0.000000  1
