# generated using pymatgen
data_BaTiF6
_symmetry_space_group_name_H-M   'P 1'
_cell_length_a   4.99362887
_cell_length_b   4.99362888
_cell_length_c   4.99362888
_cell_angle_alpha   97.96154442
_cell_angle_beta   97.96154436
_cell_angle_gamma   97.96154435
_symmetry_Int_Tables_number   1
_chemical_formula_structural   BaTiF6
_chemical_formula_sum   'Ba1 Ti1 F6'
_cell_volume   120.54497892
_cell_formula_units_Z   1
loop_
 _symmetry_equiv_pos_site_id
 _symmetry_equiv_pos_as_xyz
  1  'x, y, z'
loop_
 _atom_site_type_symbol
 _atom_site_label
 _atom_site_symmetry_multiplicity
 _atom_site_fract_x
 _atom_site_fract_y
 _atom_site_fract_z
 _atom_site_occupancy
  F  F0  1  0.423569  0.770767  0.770767  1
  F  F1  1  0.770767  0.770767  0.423569  1
  F  F2  1  0.576431  0.229233  0.229233  1
  F  F3  1  0.229233  0.576431  0.229233  1
  F  F4  1  0.229233  0.229233  0.576431  1
  F  F5  1  0.770767  0.423569  0.770767  1
  Ti  Ti6  1  0.500000  0.500000  0.500000  1
  Ba  Ba7  1  0.000000  0.000000  0.000000  1
