# generated using pymatgen
data_NiHO2
_symmetry_space_group_name_H-M   'P 1'
_cell_length_a   2.97505510
_cell_length_b   2.97461689
_cell_length_c   4.57122277
_cell_angle_alpha   89.99999995
_cell_angle_beta   90.01395524
_cell_angle_gamma   119.99513628
_symmetry_Int_Tables_number   1
_chemical_formula_structural   NiHO2
_chemical_formula_sum   'Ni1 H1 O2'
_cell_volume   35.03566270
_cell_formula_units_Z   1
loop_
 _symmetry_equiv_pos_site_id
 _symmetry_equiv_pos_as_xyz
  1  'x, y, z'
loop_
 _atom_site_type_symbol
 _atom_site_label
 _atom_site_symmetry_multiplicity
 _atom_site_fract_x
 _atom_site_fract_y
 _atom_site_fract_z
 _atom_site_occupancy
  Ni  Ni0  1  0.999968  0.999984  0.993442  1
  H  H1  1  0.666813  0.333406  0.555979  1
  O  O2  1  0.333164  0.666582  0.209223  1
  O  O3  1  0.666655  0.333328  0.771326  1
