# generated using pymatgen
data_RuC
_symmetry_space_group_name_H-M   'P 1'
_cell_length_a   2.78433561
_cell_length_b   2.78433539
_cell_length_c   6.49654594
_cell_angle_alpha   77.62591700
_cell_angle_beta   77.62591931
_cell_angle_gamma   60.00000248
_symmetry_Int_Tables_number   1
_chemical_formula_structural   RuC
_chemical_formula_sum   'Ru2 C2'
_cell_volume   42.26064606
_cell_formula_units_Z   2
loop_
 _symmetry_equiv_pos_site_id
 _symmetry_equiv_pos_as_xyz
  1  'x, y, z'
loop_
 _atom_site_type_symbol
 _atom_site_label
 _atom_site_symmetry_multiplicity
 _atom_site_fract_x
 _atom_site_fract_y
 _atom_site_fract_z
 _atom_site_occupancy
  Ru  Ru0  1  0.229011  0.229011  0.312967  1
  Ru  Ru1  1  0.770989  0.770989  0.687033  1
  C  C2  1  0.037094  0.037094  0.888719  1
  C  C3  1  0.962906  0.962906  0.111281  1
