# generated using pymatgen
data_Zn(CuO2)2
_symmetry_space_group_name_H-M   'P 1'
_cell_length_a   5.47489983
_cell_length_b   5.47490025
_cell_length_c   6.66595468
_cell_angle_alpha   114.24639208
_cell_angle_beta   114.24639136
_cell_angle_gamma   89.99999782
_symmetry_Int_Tables_number   1
_chemical_formula_structural   Zn(CuO2)2
_chemical_formula_sum   'Zn2 Cu4 O8'
_cell_volume   162.65894259
_cell_formula_units_Z   2
loop_
 _symmetry_equiv_pos_site_id
 _symmetry_equiv_pos_as_xyz
  1  'x, y, z'
loop_
 _atom_site_type_symbol
 _atom_site_label
 _atom_site_symmetry_multiplicity
 _atom_site_fract_x
 _atom_site_fract_y
 _atom_site_fract_z
 _atom_site_occupancy
  Zn  Zn0  1  0.375000  0.625000  0.750000  1
  Zn  Zn1  1  0.625000  0.375000  0.250000  1
  Cu  Cu2  1  -0.000000  0.000000  0.500000  1
  Cu  Cu3  1  -0.000000  0.500000  -0.000000  1
  Cu  Cu4  1  0.500000  0.000000  0.500000  1
  Cu  Cu5  1  -0.000000  0.000000  -0.000000  1
  O  O6  1  0.746430  0.768836  0.492861  1
  O  O7  1  0.775976  0.253570  0.007139  1
  O  O8  1  0.231164  0.253570  0.007139  1
  O  O9  1  0.253570  0.231164  0.507139  1
  O  O10  1  0.253570  0.775976  0.507139  1
  O  O11  1  0.224024  0.746430  0.992861  1
  O  O12  1  0.746430  0.224024  0.492861  1
  O  O13  1  0.768836  0.746430  0.992861  1
